xflr5 v6.61

 Calculated polar for: Airfoil-RevE-HC

 1 1 Reynolds number fixed          Mach number fixed         

 xtrf =   1.000 (top)        1.000 (bottom)
 Mach =   0.370     Re =     3.100 e 6     Ncrit =   0.500

  alpha     CL        CD       CDp       Cm    Top Xtr Bot Xtr   Cpmin    Chinge    XCp    
 ------- -------- --------- --------- -------- ------- ------- -------- --------- ---------
   0.000   0.6951   0.01656   0.01025  -0.1511  0.3420  0.0203  -2.3320   0.0000   0.0000   0.0000   0.4590
   0.010   0.6960   0.01657   0.01027  -0.1511  0.3420  0.0203  -2.3330   0.0000   0.0000   0.0000   0.4586
   0.020   0.6969   0.01659   0.01028  -0.1510  0.3420  0.0203  -2.3341   0.0000   0.0000   0.0000   0.4582
   0.030   0.6978   0.01660   0.01029  -0.1510  0.3419  0.0203  -2.3351   0.0000   0.0000   0.0000   0.4578
   0.040   0.6987   0.01661   0.01030  -0.1509  0.3419  0.0204  -2.3361   0.0000   0.0000   0.0000   0.4574
   0.050   0.6996   0.01662   0.01031  -0.1509  0.3419  0.0204  -2.3371   0.0000   0.0000   0.0000   0.4570
   0.060   0.7005   0.01663   0.01033  -0.1509  0.3419  0.0204  -2.3381   0.0000   0.0000   0.0000   0.4567
   0.070   0.7014   0.01664   0.01034  -0.1508  0.3419  0.0204  -2.3391   0.0000   0.0000   0.0000   0.4563
   0.080   0.7023   0.01665   0.01035  -0.1508  0.3419  0.0204  -2.3401   0.0000   0.0000   0.0000   0.4559
   0.090   0.7032   0.01667   0.01036  -0.1507  0.3419  0.0204  -2.3411   0.0000   0.0000   0.0000   0.4555
   0.100   0.7041   0.01668   0.01037  -0.1507  0.3419  0.0204  -2.3421   0.0000   0.0000   0.0000   0.4551
   0.110   0.7050   0.01669   0.01039  -0.1506  0.3419  0.0204  -2.3432   0.0000   0.0000   0.0000   0.4548
   0.120   0.7059   0.01670   0.01040  -0.1506  0.3419  0.0204  -2.3442   0.0000   0.0000   0.0000   0.4544
   0.130   0.7068   0.01671   0.01041  -0.1506  0.3418  0.0204  -2.3452   0.0000   0.0000   0.0000   0.4540
   0.140   0.7077   0.01672   0.01042  -0.1505  0.3418  0.0204  -2.3462   0.0000   0.0000   0.0000   0.4536
   0.150   0.7086   0.01673   0.01043  -0.1505  0.3418  0.0204  -2.3473   0.0000   0.0000   0.0000   0.4532
   0.160   0.7095   0.01675   0.01044  -0.1504  0.3418  0.0204  -2.3483   0.0000   0.0000   0.0000   0.4529
   0.170   0.7105   0.01676   0.01046  -0.1504  0.3418  0.0205  -2.3493   0.0000   0.0000   0.0000   0.4525
   0.180   0.7114   0.01677   0.01047  -0.1503  0.3418  0.0205  -2.3503   0.0000   0.0000   0.0000   0.4521
   0.190   0.7123   0.01678   0.01048  -0.1503  0.3418  0.0205  -2.3514   0.0000   0.0000   0.0000   0.4517
   0.200   0.7132   0.01679   0.01049  -0.1503  0.3418  0.0205  -2.3524   0.0000   0.0000   0.0000   0.4514
   0.210   0.7141   0.01680   0.01050  -0.1502  0.3418  0.0205  -2.3534   0.0000   0.0000   0.0000   0.4510
   0.220   0.7151   0.01681   0.01051  -0.1502  0.3417  0.0205  -2.3545   0.0000   0.0000   0.0000   0.4506
   0.230   0.7160   0.01682   0.01052  -0.1501  0.3417  0.0205  -2.3555   0.0000   0.0000   0.0000   0.4503
   0.240   0.7169   0.01683   0.01054  -0.1501  0.3417  0.0205  -2.3565   0.0000   0.0000   0.0000   0.4499
   0.250   0.7178   0.01685   0.01055  -0.1501  0.3417  0.0205  -2.3576   0.0000   0.0000   0.0000   0.4495
   0.260   0.7187   0.01686   0.01056  -0.1500  0.3417  0.0205  -2.3586   0.0000   0.0000   0.0000   0.4492
   0.270   0.7197   0.01687   0.01057  -0.1500  0.3417  0.0205  -2.3596   0.0000   0.0000   0.0000   0.4488
   0.280   0.7206   0.01688   0.01058  -0.1499  0.3417  0.0205  -2.3607   0.0000   0.0000   0.0000   0.4484
   0.290   0.7215   0.01689   0.01059  -0.1499  0.3417  0.0205  -2.3617   0.0000   0.0000   0.0000   0.4481
   0.300   0.7224   0.01690   0.01060  -0.1499  0.3417  0.0206  -2.3628   0.0000   0.0000   0.0000   0.4477
   0.310   0.7234   0.01691   0.01062  -0.1498  0.3417  0.0206  -2.3638   0.0000   0.0000   0.0000   0.4473
   0.320   0.7243   0.01692   0.01063  -0.1498  0.3416  0.0206  -2.3648   0.0000   0.0000   0.0000   0.4470
   0.330   0.7252   0.01693   0.01064  -0.1497  0.3416  0.0206  -2.3659   0.0000   0.0000   0.0000   0.4466
   0.340   0.7261   0.01694   0.01065  -0.1497  0.3416  0.0206  -2.3669   0.0000   0.0000   0.0000   0.4462
   0.350   0.7271   0.01696   0.01066  -0.1497  0.3416  0.0206  -2.3679   0.0000   0.0000   0.0000   0.4459
   0.360   0.7280   0.01697   0.01067  -0.1496  0.3416  0.0206  -2.3690   0.0000   0.0000   0.0000   0.4455
   0.370   0.7289   0.01698   0.01068  -0.1496  0.3416  0.0206  -2.3700   0.0000   0.0000   0.0000   0.4452
   0.380   0.7299   0.01699   0.01070  -0.1496  0.3416  0.0206  -2.3711   0.0000   0.0000   0.0000   0.4448
   0.390   0.7308   0.01700   0.01071  -0.1495  0.3416  0.0206  -2.3721   0.0000   0.0000   0.0000   0.4445
   0.400   0.7317   0.01701   0.01072  -0.1495  0.3416  0.0206  -2.3731   0.0000   0.0000   0.0000   0.4441
   0.410   0.7326   0.01702   0.01073  -0.1494  0.3415  0.0206  -2.3742   0.0000   0.0000   0.0000   0.4438
   0.420   0.7336   0.01703   0.01074  -0.1494  0.3415  0.0207  -2.3752   0.0000   0.0000   0.0000   0.4434
   0.430   0.7345   0.01704   0.01075  -0.1494  0.3415  0.0207  -2.3763   0.0000   0.0000   0.0000   0.4431
   0.440   0.7354   0.01706   0.01076  -0.1493  0.3415  0.0207  -2.3773   0.0000   0.0000   0.0000   0.4427
   0.450   0.7364   0.01707   0.01078  -0.1493  0.3415  0.0207  -2.3783   0.0000   0.0000   0.0000   0.4424
   0.460   0.7373   0.01708   0.01079  -0.1492  0.3415  0.0207  -2.3794   0.0000   0.0000   0.0000   0.4420
   0.470   0.7382   0.01709   0.01080  -0.1492  0.3415  0.0207  -2.3804   0.0000   0.0000   0.0000   0.4417
   0.480   0.7391   0.01710   0.01081  -0.1492  0.3415  0.0207  -2.3815   0.0000   0.0000   0.0000   0.4413
   0.490   0.7401   0.01711   0.01082  -0.1491  0.3415  0.0207  -2.3825   0.0000   0.0000   0.0000   0.4410
   0.500   0.7410   0.01712   0.01083  -0.1491  0.3414  0.0207  -2.3835   0.0000   0.0000   0.0000   0.4406
   0.510   0.7419   0.01713   0.01085  -0.1490  0.3414  0.0207  -2.3846   0.0000   0.0000   0.0000   0.4403
   0.520   0.7429   0.01714   0.01086  -0.1490  0.3414  0.0207  -2.3856   0.0000   0.0000   0.0000   0.4399
   0.530   0.7438   0.01716   0.01087  -0.1490  0.3414  0.0207  -2.3867   0.0000   0.0000   0.0000   0.4396
   0.540   0.7447   0.01717   0.01088  -0.1489  0.3414  0.0208  -2.3877   0.0000   0.0000   0.0000   0.4392
   0.550   0.7456   0.01718   0.01089  -0.1489  0.3414  0.0208  -2.3887   0.0000   0.0000   0.0000   0.4389
   0.560   0.7466   0.01719   0.01090  -0.1489  0.3414  0.0208  -2.3898   0.0000   0.0000   0.0000   0.4386
   0.570   0.7475   0.01720   0.01092  -0.1488  0.3414  0.0208  -2.3908   0.0000   0.0000   0.0000   0.4382
   0.580   0.7484   0.01721   0.01093  -0.1488  0.3414  0.0208  -2.3918   0.0000   0.0000   0.0000   0.4379
   0.590   0.7494   0.01722   0.01094  -0.1487  0.3413  0.0208  -2.3929   0.0000   0.0000   0.0000   0.4375
   0.600   0.7503   0.01724   0.01095  -0.1487  0.3413  0.0208  -2.3939   0.0000   0.0000   0.0000   0.4372
   0.610   0.7512   0.01725   0.01096  -0.1487  0.3413  0.0209  -2.3950   0.0000   0.0000   0.0000   0.4369
   0.620   0.7521   0.01726   0.01098  -0.1486  0.3413  0.0209  -2.3960   0.0000   0.0000   0.0000   0.4365
   0.630   0.7530   0.01727   0.01099  -0.1486  0.3413  0.0209  -2.3970   0.0000   0.0000   0.0000   0.4362
   0.640   0.7539   0.01728   0.01100  -0.1485  0.3413  0.0209  -2.3980   0.0000   0.0000   0.0000   0.4359
   0.650   0.7548   0.01730   0.01102  -0.1485  0.3413  0.0210  -2.3990   0.0000   0.0000   0.0000   0.4355
   0.660   0.7557   0.01731   0.01103  -0.1485  0.3413  0.0210  -2.4000   0.0000   0.0000   0.0000   0.4352
   0.670   0.7566   0.01732   0.01104  -0.1484  0.3413  0.0210  -2.4010   0.0000   0.0000   0.0000   0.4349
   0.680   0.7574   0.01734   0.01106  -0.1484  0.3412  0.0210  -2.4019   0.0000   0.0000   0.0000   0.4346
   0.690   0.7583   0.01735   0.01107  -0.1483  0.3412  0.0211  -2.4029   0.0000   0.0000   0.0000   0.4342
   0.700   0.7591   0.01737   0.01109  -0.1483  0.3412  0.0211  -2.4038   0.0000   0.0000   0.0000   0.4339
   0.710   0.7600   0.01738   0.01110  -0.1482  0.3412  0.0211  -2.4048   0.0000   0.0000   0.0000   0.4336
   0.720   0.7608   0.01739   0.01112  -0.1482  0.3412  0.0211  -2.4057   0.0000   0.0000   0.0000   0.4333
   0.730   0.7616   0.01741   0.01113  -0.1481  0.3412  0.0212  -2.4067   0.0000   0.0000   0.0000   0.4330
   0.740   0.7625   0.01742   0.01115  -0.1481  0.3412  0.0212  -2.4076   0.0000   0.0000   0.0000   0.4327
   0.750   0.7633   0.01744   0.01116  -0.1480  0.3412  0.0212  -2.4085   0.0000   0.0000   0.0000   0.4323
   0.760   0.7641   0.01745   0.01118  -0.1480  0.3412  0.0213  -2.4095   0.0000   0.0000   0.0000   0.4320
   0.770   0.7649   0.01747   0.01120  -0.1479  0.3411  0.0213  -2.4104   0.0000   0.0000   0.0000   0.4317
   0.780   0.7658   0.01749   0.01121  -0.1479  0.3411  0.0213  -2.4113   0.0000   0.0000   0.0000   0.4314
   0.790   0.7666   0.01750   0.01123  -0.1478  0.3411  0.0214  -2.4123   0.0000   0.0000   0.0000   0.4311
   0.800   0.7674   0.01752   0.01124  -0.1478  0.3411  0.0214  -2.4132   0.0000   0.0000   0.0000   0.4308
   0.810   0.7683   0.01753   0.01126  -0.1477  0.3411  0.0214  -2.4141   0.0000   0.0000   0.0000   0.4305
   0.820   0.7691   0.01755   0.01128  -0.1477  0.3411  0.0215  -2.4151   0.0000   0.0000   0.0000   0.4301
   0.830   0.7699   0.01756   0.01129  -0.1476  0.3411  0.0215  -2.4160   0.0000   0.0000   0.0000   0.4298
   0.840   0.7707   0.01758   0.01131  -0.1476  0.3411  0.0216  -2.4169   0.0000   0.0000   0.0000   0.4295
   0.850   0.7716   0.01759   0.01132  -0.1475  0.3410  0.0216  -2.4179   0.0000   0.0000   0.0000   0.4292
   0.860   0.7724   0.01761   0.01134  -0.1475  0.3410  0.0216  -2.4188   0.0000   0.0000   0.0000   0.4289
   0.870   0.7733   0.01762   0.01136  -0.1474  0.3410  0.0217  -2.4197   0.0000   0.0000   0.0000   0.4286
   0.880   0.7741   0.01764   0.01137  -0.1474  0.3410  0.0217  -2.4207   0.0000   0.0000   0.0000   0.4283
   0.890   0.7749   0.01765   0.01139  -0.1473  0.3410  0.0218  -2.4216   0.0000   0.0000   0.0000   0.4280
   0.900   0.7758   0.01767   0.01140  -0.1473  0.3410  0.0218  -2.4226   0.0000   0.0000   0.0000   0.4277
   0.910   0.7766   0.01768   0.01142  -0.1472  0.3410  0.0218  -2.4236   0.0000   0.0000   0.0000   0.4274
   0.920   0.7775   0.01770   0.01143  -0.1472  0.3410  0.0219  -2.4245   0.0000   0.0000   0.0000   0.4271
   0.930   0.7784   0.01771   0.01145  -0.1472  0.3410  0.0219  -2.4255   0.0000   0.0000   0.0000   0.4268
   0.940   0.7792   0.01772   0.01146  -0.1471  0.3409  0.0220  -2.4264   0.0000   0.0000   0.0000   0.4265
   0.950   0.7801   0.01774   0.01148  -0.1471  0.3409  0.0220  -2.4274   0.0000   0.0000   0.0000   0.4261
   0.960   0.7810   0.01775   0.01149  -0.1470  0.3409  0.0220  -2.4284   0.0000   0.0000   0.0000   0.4258
   0.970   0.7818   0.01777   0.01151  -0.1470  0.3409  0.0221  -2.4294   0.0000   0.0000   0.0000   0.4255
   0.980   0.7827   0.01778   0.01152  -0.1469  0.3409  0.0221  -2.4303   0.0000   0.0000   0.0000   0.4252
   0.990   0.7836   0.01779   0.01153  -0.1469  0.3409  0.0222  -2.4313   0.0000   0.0000   0.0000   0.4249
   1.000   0.7845   0.01781   0.01155  -0.1469  0.3409  0.0222  -2.4323   0.0000   0.0000   0.0000   0.4246
   1.010   0.7853   0.01782   0.01156  -0.1468  0.3409  0.0222  -2.4333   0.0000   0.0000   0.0000   0.4243
   1.020   0.7862   0.01784   0.01158  -0.1468  0.3408  0.0223  -2.4343   0.0000   0.0000   0.0000   0.4240
   1.030   0.7871   0.01785   0.01159  -0.1467  0.3408  0.0223  -2.4352   0.0000   0.0000   0.0000   0.4237
   1.040   0.7880   0.01786   0.01161  -0.1467  0.3408  0.0223  -2.4362   0.0000   0.0000   0.0000   0.4234
   1.050   0.7889   0.01788   0.01162  -0.1466  0.3408  0.0224  -2.4372   0.0000   0.0000   0.0000   0.4231
   1.060   0.7897   0.01789   0.01163  -0.1466  0.3408  0.0224  -2.4382   0.0000   0.0000   0.0000   0.4228
   1.070   0.7906   0.01791   0.01165  -0.1466  0.3408  0.0225  -2.4392   0.0000   0.0000   0.0000   0.4225
   1.080   0.7915   0.01792   0.01166  -0.1465  0.3408  0.0225  -2.4402   0.0000   0.0000   0.0000   0.4222
   1.090   0.7924   0.01793   0.01168  -0.1465  0.3408  0.0225  -2.4412   0.0000   0.0000   0.0000   0.4219
   1.100   0.7933   0.01795   0.01169  -0.1464  0.3407  0.0226  -2.4422   0.0000   0.0000   0.0000   0.4216
   1.110   0.7942   0.01796   0.01171  -0.1464  0.3407  0.0226  -2.4432   0.0000   0.0000   0.0000   0.4213
   1.120   0.7951   0.01797   0.01172  -0.1464  0.3407  0.0226  -2.4442   0.0000   0.0000   0.0000   0.4211
   1.130   0.7960   0.01799   0.01173  -0.1463  0.3407  0.0227  -2.4452   0.0000   0.0000   0.0000   0.4208
   1.140   0.7969   0.01800   0.01175  -0.1463  0.3407  0.0227  -2.4462   0.0000   0.0000   0.0000   0.4205
   1.150   0.7978   0.01801   0.01176  -0.1462  0.3407  0.0227  -2.4472   0.0000   0.0000   0.0000   0.4202
   1.160   0.7987   0.01803   0.01178  -0.1462  0.3407  0.0228  -2.4482   0.0000   0.0000   0.0000   0.4199
   1.170   0.7996   0.01804   0.01179  -0.1462  0.3407  0.0228  -2.4492   0.0000   0.0000   0.0000   0.4196
   1.180   0.8005   0.01805   0.01180  -0.1461  0.3407  0.0228  -2.4502   0.0000   0.0000   0.0000   0.4193
   1.190   0.8014   0.01807   0.01182  -0.1461  0.3406  0.0229  -2.4512   0.0000   0.0000   0.0000   0.4190
   1.200   0.8023   0.01808   0.01183  -0.1460  0.3406  0.0229  -2.4522   0.0000   0.0000   0.0000   0.4187
   1.210   0.8032   0.01809   0.01185  -0.1460  0.3406  0.0229  -2.4532   0.0000   0.0000   0.0000   0.4184
   1.220   0.8041   0.01811   0.01186  -0.1460  0.3406  0.0229  -2.4542   0.0000   0.0000   0.0000   0.4181
   1.230   0.8050   0.01812   0.01187  -0.1459  0.3406  0.0230  -2.4552   0.0000   0.0000   0.0000   0.4178
   1.240   0.8059   0.01813   0.01189  -0.1459  0.3406  0.0230  -2.4562   0.0000   0.0000   0.0000   0.4176
   1.250   0.8068   0.01815   0.01190  -0.1458  0.3406  0.0230  -2.4572   0.0000   0.0000   0.0000   0.4173
   1.260   0.8077   0.01816   0.01192  -0.1458  0.3406  0.0230  -2.4582   0.0000   0.0000   0.0000   0.4170
   1.270   0.8086   0.01817   0.01193  -0.1458  0.3405  0.0231  -2.4592   0.0000   0.0000   0.0000   0.4167
   1.280   0.8095   0.01819   0.01194  -0.1457  0.3405  0.0231  -2.4602   0.0000   0.0000   0.0000   0.4164
   1.290   0.8104   0.01820   0.01196  -0.1457  0.3405  0.0231  -2.4612   0.0000   0.0000   0.0000   0.4161
   1.300   0.8113   0.01821   0.01197  -0.1457  0.3405  0.0231  -2.4622   0.0000   0.0000   0.0000   0.4158
   1.310   0.8122   0.01823   0.01199  -0.1456  0.3405  0.0231  -2.4632   0.0000   0.0000   0.0000   0.4156
   1.320   0.8131   0.01824   0.01200  -0.1456  0.3405  0.0232  -2.4642   0.0000   0.0000   0.0000   0.4153
   1.330   0.8140   0.01826   0.01201  -0.1455  0.3405  0.0232  -2.4653   0.0000   0.0000   0.0000   0.4150
   1.340   0.8149   0.01827   0.01203  -0.1455  0.3405  0.0232  -2.4663   0.0000   0.0000   0.0000   0.4147
   1.350   0.8158   0.01828   0.01204  -0.1455  0.3404  0.0232  -2.4673   0.0000   0.0000   0.0000   0.4144
   1.360   0.8167   0.01830   0.01206  -0.1454  0.3404  0.0232  -2.4683   0.0000   0.0000   0.0000   0.4142
   1.370   0.8176   0.01831   0.01207  -0.1454  0.3404  0.0232  -2.4693   0.0000   0.0000   0.0000   0.4139
   1.380   0.8185   0.01832   0.01208  -0.1454  0.3404  0.0232  -2.4703   0.0000   0.0000   0.0000   0.4136
   1.390   0.8195   0.01834   0.01210  -0.1453  0.3404  0.0233  -2.4713   0.0000   0.0000   0.0000   0.4133
   1.400   0.8204   0.01835   0.01211  -0.1453  0.3404  0.0233  -2.4723   0.0000   0.0000   0.0000   0.4130
   1.410   0.8213   0.01836   0.01213  -0.1452  0.3404  0.0233  -2.4733   0.0000   0.0000   0.0000   0.4128
   1.420   0.8222   0.01838   0.01214  -0.1452  0.3404  0.0233  -2.4743   0.0000   0.0000   0.0000   0.4125
   1.430   0.8231   0.01839   0.01215  -0.1452  0.3403  0.0233  -2.4753   0.0000   0.0000   0.0000   0.4122
   1.440   0.8240   0.01841   0.01217  -0.1451  0.3403  0.0233  -2.4763   0.0000   0.0000   0.0000   0.4119
   1.450   0.8249   0.01842   0.01218  -0.1451  0.3403  0.0233  -2.4773   0.0000   0.0000   0.0000   0.4117
   1.460   0.8258   0.01843   0.01220  -0.1451  0.3403  0.0233  -2.4783   0.0000   0.0000   0.0000   0.4114
   1.470   0.8267   0.01845   0.01221  -0.1450  0.3403  0.0233  -2.4793   0.0000   0.0000   0.0000   0.4111
   1.480   0.8276   0.01846   0.01223  -0.1450  0.3403  0.0234  -2.4803   0.0000   0.0000   0.0000   0.4109
   1.490   0.8285   0.01848   0.01224  -0.1449  0.3403  0.0234  -2.4813   0.0000   0.0000   0.0000   0.4106
   1.500   0.8293   0.01849   0.01226  -0.1449  0.3403  0.0234  -2.4823   0.0000   0.0000   0.0000   0.4103
   1.510   0.8302   0.01851   0.01227  -0.1449  0.3402  0.0234  -2.4833   0.0000   0.0000   0.0000   0.4100
   1.520   0.8311   0.01852   0.01229  -0.1448  0.3402  0.0234  -2.4842   0.0000   0.0000   0.0000   0.4098
   1.530   0.8319   0.01854   0.01231  -0.1448  0.3402  0.0234  -2.4852   0.0000   0.0000   0.0000   0.4095
   1.540   0.8328   0.01855   0.01232  -0.1447  0.3402  0.0234  -2.4861   0.0000   0.0000   0.0000   0.4092
   1.550   0.8336   0.01857   0.01234  -0.1447  0.3402  0.0234  -2.4870   0.0000   0.0000   0.0000   0.4090
   1.560   0.8344   0.01859   0.01236  -0.1446  0.3402  0.0234  -2.4879   0.0000   0.0000   0.0000   0.4087
   1.570   0.8352   0.01861   0.01238  -0.1446  0.3402  0.0235  -2.4888   0.0000   0.0000   0.0000   0.4085
   1.580   0.8361   0.01862   0.01239  -0.1445  0.3401  0.0235  -2.4897   0.0000   0.0000   0.0000   0.4082
   1.590   0.8369   0.01864   0.01241  -0.1445  0.3401  0.0235  -2.4906   0.0000   0.0000   0.0000   0.4079
   1.600   0.8377   0.01866   0.01243  -0.1444  0.3401  0.0235  -2.4915   0.0000   0.0000   0.0000   0.4077
   1.610   0.8385   0.01868   0.01245  -0.1444  0.3401  0.0235  -2.4924   0.0000   0.0000   0.0000   0.4074
   1.620   0.8393   0.01870   0.01247  -0.1443  0.3401  0.0235  -2.4933   0.0000   0.0000   0.0000   0.4072
   1.630   0.8401   0.01871   0.01249  -0.1443  0.3401  0.0235  -2.4942   0.0000   0.0000   0.0000   0.4069
   1.640   0.8409   0.01873   0.01251  -0.1442  0.3401  0.0235  -2.4951   0.0000   0.0000   0.0000   0.4066
   1.650   0.8417   0.01875   0.01253  -0.1442  0.3401  0.0236  -2.4960   0.0000   0.0000   0.0000   0.4064
   1.660   0.8424   0.01877   0.01255  -0.1441  0.3400  0.0236  -2.4968   0.0000   0.0000   0.0000   0.4061
   1.670   0.8432   0.01879   0.01257  -0.1441  0.3400  0.0236  -2.4977   0.0000   0.0000   0.0000   0.4059
   1.680   0.8440   0.01881   0.01258  -0.1440  0.3400  0.0236  -2.4986   0.0000   0.0000   0.0000   0.4056
   1.690   0.8448   0.01883   0.01260  -0.1440  0.3400  0.0236  -2.4995   0.0000   0.0000   0.0000   0.4054
   1.700   0.8456   0.01884   0.01262  -0.1440  0.3400  0.0236  -2.5004   0.0000   0.0000   0.0000   0.4051
   1.710   0.8465   0.01886   0.01264  -0.1439  0.3400  0.0236  -2.5013   0.0000   0.0000   0.0000   0.4049
   1.720   0.8473   0.01888   0.01266  -0.1439  0.3400  0.0236  -2.5022   0.0000   0.0000   0.0000   0.4046
   1.730   0.8481   0.01890   0.01268  -0.1438  0.3400  0.0236  -2.5031   0.0000   0.0000   0.0000   0.4044
   1.740   0.8489   0.01892   0.01270  -0.1438  0.3399  0.0237  -2.5040   0.0000   0.0000   0.0000   0.4041
   1.750   0.8497   0.01893   0.01272  -0.1437  0.3399  0.0237  -2.5049   0.0000   0.0000   0.0000   0.4039
   1.760   0.8505   0.01895   0.01273  -0.1437  0.3399  0.0237  -2.5058   0.0000   0.0000   0.0000   0.4036
   1.770   0.8514   0.01897   0.01275  -0.1436  0.3399  0.0237  -2.5067   0.0000   0.0000   0.0000   0.4033
   1.780   0.8522   0.01899   0.01277  -0.1436  0.3399  0.0237  -2.5077   0.0000   0.0000   0.0000   0.4031
   1.790   0.8530   0.01900   0.01279  -0.1435  0.3399  0.0237  -2.5086   0.0000   0.0000   0.0000   0.4028
   1.800   0.8539   0.01902   0.01281  -0.1435  0.3399  0.0237  -2.5095   0.0000   0.0000   0.0000   0.4026
   1.810   0.8547   0.01904   0.01282  -0.1435  0.3398  0.0238  -2.5104   0.0000   0.0000   0.0000   0.4023
   1.820   0.8556   0.01905   0.01284  -0.1434  0.3398  0.0238  -2.5114   0.0000   0.0000   0.0000   0.4021
   1.830   0.8564   0.01907   0.01286  -0.1434  0.3398  0.0238  -2.5123   0.0000   0.0000   0.0000   0.4018
   1.840   0.8573   0.01909   0.01288  -0.1433  0.3398  0.0238  -2.5132   0.0000   0.0000   0.0000   0.4016
   1.850   0.8581   0.01910   0.01289  -0.1433  0.3398  0.0238  -2.5142   0.0000   0.0000   0.0000   0.4013
   1.860   0.8590   0.01912   0.01291  -0.1432  0.3398  0.0238  -2.5151   0.0000   0.0000   0.0000   0.4011
   1.870   0.8598   0.01914   0.01293  -0.1432  0.3398  0.0238  -2.5161   0.0000   0.0000   0.0000   0.4009
   1.880   0.8607   0.01915   0.01294  -0.1432  0.3398  0.0239  -2.5170   0.0000   0.0000   0.0000   0.4006
   1.890   0.8615   0.01917   0.01296  -0.1431  0.3397  0.0239  -2.5180   0.0000   0.0000   0.0000   0.4004
   1.900   0.8624   0.01919   0.01298  -0.1431  0.3397  0.0239  -2.5189   0.0000   0.0000   0.0000   0.4001
   1.910   0.8633   0.01920   0.01299  -0.1430  0.3397  0.0239  -2.5199   0.0000   0.0000   0.0000   0.3999
   1.920   0.8641   0.01922   0.01301  -0.1430  0.3397  0.0239  -2.5208   0.0000   0.0000   0.0000   0.3996
   1.930   0.8650   0.01924   0.01303  -0.1430  0.3397  0.0239  -2.5218   0.0000   0.0000   0.0000   0.3994
   1.940   0.8659   0.01925   0.01305  -0.1429  0.3397  0.0240  -2.5228   0.0000   0.0000   0.0000   0.3991
   1.950   0.8667   0.01927   0.01306  -0.1429  0.3397  0.0240  -2.5237   0.0000   0.0000   0.0000   0.3989
   1.960   0.8676   0.01928   0.01308  -0.1428  0.3396  0.0240  -2.5247   0.0000   0.0000   0.0000   0.3986
   1.970   0.8685   0.01930   0.01310  -0.1428  0.3396  0.0240  -2.5256   0.0000   0.0000   0.0000   0.3984
   1.980   0.8694   0.01932   0.01311  -0.1428  0.3396  0.0240  -2.5266   0.0000   0.0000   0.0000   0.3982
   1.990   0.8702   0.01933   0.01313  -0.1427  0.3396  0.0240  -2.5276   0.0000   0.0000   0.0000   0.3979
   2.000   0.8711   0.01935   0.01315  -0.1427  0.3396  0.0241  -2.5285   0.0000   0.0000   0.0000   0.3977
   2.010   0.8720   0.01937   0.01316  -0.1426  0.3396  0.0241  -2.5295   0.0000   0.0000   0.0000   0.3974
   2.020   0.8729   0.01938   0.01318  -0.1426  0.3396  0.0241  -2.5305   0.0000   0.0000   0.0000   0.3972
   2.030   0.8737   0.01940   0.01320  -0.1426  0.3396  0.0241  -2.5314   0.0000   0.0000   0.0000   0.3969
   2.040   0.8746   0.01941   0.01321  -0.1425  0.3395  0.0241  -2.5324   0.0000   0.0000   0.0000   0.3967
   2.050   0.8755   0.01943   0.01323  -0.1425  0.3395  0.0241  -2.5334   0.0000   0.0000   0.0000   0.3965
   2.060   0.8764   0.01945   0.01325  -0.1425  0.3395  0.0242  -2.5343   0.0000   0.0000   0.0000   0.3962
   2.070   0.8772   0.01946   0.01326  -0.1424  0.3395  0.0242  -2.5353   0.0000   0.0000   0.0000   0.3960
   2.080   0.8781   0.01948   0.01328  -0.1424  0.3395  0.0242  -2.5363   0.0000   0.0000   0.0000   0.3957
   2.090   0.8790   0.01949   0.01330  -0.1423  0.3395  0.0242  -2.5372   0.0000   0.0000   0.0000   0.3955
   2.100   0.8799   0.01951   0.01331  -0.1423  0.3395  0.0242  -2.5382   0.0000   0.0000   0.0000   0.3953
   2.110   0.8808   0.01953   0.01333  -0.1423  0.3394  0.0242  -2.5392   0.0000   0.0000   0.0000   0.3950
   2.120   0.8816   0.01954   0.01335  -0.1422  0.3394  0.0243  -2.5401   0.0000   0.0000   0.0000   0.3948
   2.130   0.8825   0.01956   0.01336  -0.1422  0.3394  0.0243  -2.5411   0.0000   0.0000   0.0000   0.3946
   2.140   0.8834   0.01957   0.01338  -0.1422  0.3394  0.0243  -2.5421   0.0000   0.0000   0.0000   0.3943
   2.150   0.8843   0.01959   0.01340  -0.1421  0.3394  0.0243  -2.5430   0.0000   0.0000   0.0000   0.3941
   2.160   0.8852   0.01961   0.01341  -0.1421  0.3394  0.0243  -2.5440   0.0000   0.0000   0.0000   0.3939
   2.170   0.8860   0.01962   0.01343  -0.1420  0.3394  0.0244  -2.5450   0.0000   0.0000   0.0000   0.3936
   2.180   0.8869   0.01964   0.01345  -0.1420  0.3393  0.0244  -2.5459   0.0000   0.0000   0.0000   0.3934
   2.190   0.8878   0.01965   0.01346  -0.1420  0.3393  0.0244  -2.5469   0.0000   0.0000   0.0000   0.3932
   2.200   0.8887   0.01967   0.01348  -0.1419  0.3393  0.0245  -2.5479   0.0000   0.0000   0.0000   0.3929
   2.210   0.8896   0.01969   0.01350  -0.1419  0.3393  0.0245  -2.5488   0.0000   0.0000   0.0000   0.3927
   2.220   0.8904   0.01970   0.01351  -0.1419  0.3393  0.0245  -2.5498   0.0000   0.0000   0.0000   0.3925
   2.230   0.8913   0.01972   0.01353  -0.1418  0.3393  0.0246  -2.5508   0.0000   0.0000   0.0000   0.3922
   2.240   0.8922   0.01974   0.01355  -0.1418  0.3393  0.0246  -2.5517   0.0000   0.0000   0.0000   0.3920
   2.250   0.8931   0.01975   0.01356  -0.1417  0.3393  0.0247  -2.5527   0.0000   0.0000   0.0000   0.3918
   2.260   0.8939   0.01977   0.01358  -0.1417  0.3392  0.0247  -2.5537   0.0000   0.0000   0.0000   0.3915
   2.270   0.8948   0.01978   0.01360  -0.1417  0.3392  0.0248  -2.5546   0.0000   0.0000   0.0000   0.3913
   2.280   0.8957   0.01980   0.01362  -0.1416  0.3392  0.0248  -2.5556   0.0000   0.0000   0.0000   0.3911
   2.290   0.8966   0.01982   0.01363  -0.1416  0.3392  0.0249  -2.5565   0.0000   0.0000   0.0000   0.3909
   2.300   0.8974   0.01984   0.01365  -0.1416  0.3392  0.0249  -2.5575   0.0000   0.0000   0.0000   0.3906
   2.310   0.8982   0.01985   0.01367  -0.1415  0.3392  0.0250  -2.5584   0.0000   0.0000   0.0000   0.3904
   2.320   0.8991   0.01987   0.01369  -0.1415  0.3392  0.0250  -2.5593   0.0000   0.0000   0.0000   0.3902
   2.330   0.8999   0.01989   0.01371  -0.1414  0.3391  0.0251  -2.5602   0.0000   0.0000   0.0000   0.3900
   2.340   0.9007   0.01991   0.01373  -0.1414  0.3391  0.0252  -2.5611   0.0000   0.0000   0.0000   0.3897
   2.350   0.9015   0.01993   0.01375  -0.1413  0.3391  0.0252  -2.5620   0.0000   0.0000   0.0000   0.3895
   2.360   0.9023   0.01995   0.01377  -0.1413  0.3391  0.0253  -2.5628   0.0000   0.0000   0.0000   0.3893
   2.370   0.9031   0.01997   0.01379  -0.1412  0.3391  0.0253  -2.5637   0.0000   0.0000   0.0000   0.3891
   2.380   0.9039   0.01999   0.01381  -0.1412  0.3391  0.0254  -2.5645   0.0000   0.0000   0.0000   0.3888
   2.390   0.9046   0.02001   0.01383  -0.1412  0.3391  0.0254  -2.5654   0.0000   0.0000   0.0000   0.3886
   2.400   0.9054   0.02003   0.01386  -0.1411  0.3390  0.0255  -2.5662   0.0000   0.0000   0.0000   0.3884
   2.410   0.9062   0.02005   0.01388  -0.1411  0.3390  0.0256  -2.5671   0.0000   0.0000   0.0000   0.3882
   2.420   0.9070   0.02008   0.01390  -0.1410  0.3390  0.0256  -2.5679   0.0000   0.0000   0.0000   0.3880
   2.430   0.9077   0.02010   0.01392  -0.1410  0.3390  0.0257  -2.5687   0.0000   0.0000   0.0000   0.3878
   2.440   0.9085   0.02012   0.01395  -0.1409  0.3390  0.0258  -2.5696   0.0000   0.0000   0.0000   0.3875
   2.450   0.9093   0.02014   0.01397  -0.1409  0.3390  0.0258  -2.5704   0.0000   0.0000   0.0000   0.3873
   2.460   0.9100   0.02016   0.01399  -0.1408  0.3390  0.0259  -2.5712   0.0000   0.0000   0.0000   0.3871
   2.470   0.9108   0.02018   0.01401  -0.1408  0.3389  0.0260  -2.5721   0.0000   0.0000   0.0000   0.3869
   2.480   0.9116   0.02021   0.01404  -0.1407  0.3389  0.0260  -2.5729   0.0000   0.0000   0.0000   0.3867
   2.490   0.9123   0.02023   0.01406  -0.1407  0.3389  0.0261  -2.5738   0.0000   0.0000   0.0000   0.3865
   2.500   0.9131   0.02025   0.01408  -0.1406  0.3389  0.0262  -2.5746   0.0000   0.0000   0.0000   0.3862
   2.510   0.9139   0.02027   0.01410  -0.1406  0.3389  0.0262  -2.5755   0.0000   0.0000   0.0000   0.3860
   2.520   0.9147   0.02029   0.01412  -0.1405  0.3389  0.0263  -2.5763   0.0000   0.0000   0.0000   0.3858
   2.530   0.9155   0.02031   0.01415  -0.1405  0.3389  0.0264  -2.5772   0.0000   0.0000   0.0000   0.3856
   2.540   0.9163   0.02033   0.01417  -0.1404  0.3388  0.0264  -2.5780   0.0000   0.0000   0.0000   0.3854
   2.550   0.9171   0.02035   0.01419  -0.1404  0.3388  0.0265  -2.5789   0.0000   0.0000   0.0000   0.3852
   2.560   0.9179   0.02037   0.01421  -0.1403  0.3388  0.0266  -2.5798   0.0000   0.0000   0.0000   0.3850
   2.570   0.9187   0.02039   0.01423  -0.1403  0.3388  0.0267  -2.5807   0.0000   0.0000   0.0000   0.3847
   2.580   0.9195   0.02041   0.01425  -0.1403  0.3388  0.0267  -2.5816   0.0000   0.0000   0.0000   0.3845
   2.600   0.9211   0.02045   0.01429  -0.1402  0.3388  0.0269  -2.5835   0.0000   0.0000   0.0000   0.3841
   2.610   0.9219   0.02047   0.01431  -0.1401  0.3387  0.0269  -2.5844   0.0000   0.0000   0.0000   0.3839
   2.620   0.9228   0.02049   0.01433  -0.1401  0.3387  0.0270  -2.5854   0.0000   0.0000   0.0000   0.3837
   2.630   0.9236   0.02051   0.01435  -0.1401  0.3387  0.0271  -2.5863   0.0000   0.0000   0.0000   0.3835
   2.640   0.9244   0.02053   0.01437  -0.1400  0.3387  0.0272  -2.5872   0.0000   0.0000   0.0000   0.3833
   2.650   0.9252   0.02055   0.01439  -0.1400  0.3387  0.0273  -2.5882   0.0000   0.0000   0.0000   0.3830
   2.660   0.9261   0.02057   0.01441  -0.1399  0.3387  0.0274  -2.5891   0.0000   0.0000   0.0000   0.3828
   2.670   0.9269   0.02059   0.01443  -0.1399  0.3387  0.0275  -2.5901   0.0000   0.0000   0.0000   0.3826
   2.680   0.9277   0.02061   0.01445  -0.1399  0.3386  0.0276  -2.5910   0.0000   0.0000   0.0000   0.3824
   2.690   0.9286   0.02063   0.01447  -0.1398  0.3386  0.0277  -2.5920   0.0000   0.0000   0.0000   0.3822
   2.700   0.9294   0.02064   0.01449  -0.1398  0.3386  0.0277  -2.5929   0.0000   0.0000   0.0000   0.3820
   2.710   0.9303   0.02066   0.01451  -0.1397  0.3386  0.0278  -2.5939   0.0000   0.0000   0.0000   0.3818
   2.720   0.9311   0.02068   0.01453  -0.1397  0.3386  0.0279  -2.5949   0.0000   0.0000   0.0000   0.3816
   2.730   0.9320   0.02070   0.01455  -0.1397  0.3386  0.0280  -2.5958   0.0000   0.0000   0.0000   0.3814
   2.740   0.9328   0.02072   0.01457  -0.1396  0.3386  0.0281  -2.5968   0.0000   0.0000   0.0000   0.3812
   2.750   0.9336   0.02074   0.01459  -0.1396  0.3385  0.0281  -2.5977   0.0000   0.0000   0.0000   0.3809
   2.760   0.9345   0.02076   0.01461  -0.1395  0.3385  0.0282  -2.5987   0.0000   0.0000   0.0000   0.3807
   2.770   0.9353   0.02078   0.01463  -0.1395  0.3385  0.0283  -2.5997   0.0000   0.0000   0.0000   0.3805
   2.780   0.9362   0.02079   0.01465  -0.1395  0.3385  0.0284  -2.6006   0.0000   0.0000   0.0000   0.3803
   2.790   0.9370   0.02081   0.01467  -0.1394  0.3385  0.0284  -2.6016   0.0000   0.0000   0.0000   0.3801
   2.800   0.9379   0.02083   0.01469  -0.1394  0.3385  0.0285  -2.6026   0.0000   0.0000   0.0000   0.3799
   2.810   0.9387   0.02085   0.01470  -0.1394  0.3385  0.0285  -2.6035   0.0000   0.0000   0.0000   0.3797
   2.820   0.9396   0.02087   0.01472  -0.1393  0.3384  0.0286  -2.6045   0.0000   0.0000   0.0000   0.3795
   2.830   0.9404   0.02089   0.01474  -0.1393  0.3384  0.0287  -2.6055   0.0000   0.0000   0.0000   0.3793
   2.840   0.9413   0.02091   0.01476  -0.1392  0.3384  0.0287  -2.6064   0.0000   0.0000   0.0000   0.3791
   2.850   0.9422   0.02092   0.01478  -0.1392  0.3384  0.0288  -2.6074   0.0000   0.0000   0.0000   0.3789
   2.860   0.9430   0.02094   0.01480  -0.1392  0.3384  0.0288  -2.6084   0.0000   0.0000   0.0000   0.3787
   2.870   0.9439   0.02096   0.01482  -0.1391  0.3384  0.0289  -2.6093   0.0000   0.0000   0.0000   0.3785
   2.880   0.9447   0.02098   0.01484  -0.1391  0.3384  0.0289  -2.6103   0.0000   0.0000   0.0000   0.3783
   2.890   0.9456   0.02100   0.01486  -0.1391  0.3383  0.0289  -2.6113   0.0000   0.0000   0.0000   0.3781
   2.900   0.9464   0.02102   0.01488  -0.1390  0.3383  0.0290  -2.6122   0.0000   0.0000   0.0000   0.3779
   2.910   0.9473   0.02104   0.01490  -0.1390  0.3383  0.0290  -2.6132   0.0000   0.0000   0.0000   0.3777
   2.920   0.9481   0.02105   0.01492  -0.1389  0.3383  0.0291  -2.6142   0.0000   0.0000   0.0000   0.3775
   2.930   0.9490   0.02107   0.01494  -0.1389  0.3383  0.0291  -2.6151   0.0000   0.0000   0.0000   0.3773
   2.940   0.9498   0.02109   0.01496  -0.1389  0.3383  0.0291  -2.6161   0.0000   0.0000   0.0000   0.3771
   2.950   0.9507   0.02111   0.01497  -0.1388  0.3383  0.0292  -2.6171   0.0000   0.0000   0.0000   0.3769
   2.960   0.9515   0.02113   0.01499  -0.1388  0.3382  0.0292  -2.6180   0.0000   0.0000   0.0000   0.3767
   2.970   0.9524   0.02115   0.01501  -0.1388  0.3382  0.0293  -2.6190   0.0000   0.0000   0.0000   0.3765
   2.980   0.9533   0.02117   0.01503  -0.1387  0.3382  0.0293  -2.6200   0.0000   0.0000   0.0000   0.3763
   2.990   0.9541   0.02118   0.01505  -0.1387  0.3382  0.0294  -2.6209   0.0000   0.0000   0.0000   0.3761
   3.000   0.9550   0.02120   0.01507  -0.1387  0.3382  0.0295  -2.6219   0.0000   0.0000   0.0000   0.3759
   3.010   0.9558   0.02122   0.01509  -0.1386  0.3382  0.0296  -2.6229   0.0000   0.0000   0.0000   0.3757
   3.020   0.9567   0.02124   0.01511  -0.1386  0.3382  0.0296  -2.6238   0.0000   0.0000   0.0000   0.3755
   3.030   0.9575   0.02126   0.01513  -0.1385  0.3381  0.0297  -2.6248   0.0000   0.0000   0.0000   0.3753
   3.040   0.9584   0.02128   0.01515  -0.1385  0.3381  0.0298  -2.6257   0.0000   0.0000   0.0000   0.3751
   3.050   0.9592   0.02130   0.01517  -0.1385  0.3381  0.0299  -2.6267   0.0000   0.0000   0.0000   0.3749
   3.060   0.9600   0.02132   0.01519  -0.1384  0.3381  0.0302  -2.6276   0.0000   0.0000   0.0000   0.3747
   3.070   0.9608   0.02134   0.01521  -0.1384  0.3381  0.0305  -2.6285   0.0000   0.0000   0.0000   0.3745
   3.080   0.9616   0.02136   0.01524  -0.1383  0.3381  0.0309  -2.6294   0.0000   0.0000   0.0000   0.3743
   3.090   0.9623   0.02138   0.01526  -0.1383  0.3381  0.0313  -2.6302   0.0000   0.0000   0.0000   0.3741
   3.100   0.9631   0.02140   0.01528  -0.1382  0.3380  0.0318  -2.6311   0.0000   0.0000   0.0000   0.3739
   3.110   0.9638   0.02142   0.01530  -0.1382  0.3380  0.0325  -2.6319   0.0000   0.0000   0.0000   0.3737
   3.120   0.9646   0.02145   0.01533  -0.1381  0.3380  0.0332  -2.6327   0.0000   0.0000   0.0000   0.3735
   3.130   0.9653   0.02147   0.01535  -0.1381  0.3380  0.0342  -2.6335   0.0000   0.0000   0.0000   0.3733
   3.140   0.9660   0.02149   0.01538  -0.1380  0.3380  0.0354  -2.6343   0.0000   0.0000   0.0000   0.3731
   3.150   0.9667   0.02151   0.01540  -0.1380  0.3380  0.0368  -2.6351   0.0000   0.0000   0.0000   0.3730
   3.160   0.9674   0.02153   0.01542  -0.1379  0.3380  0.0388  -2.6359   0.0000   0.0000   0.0000   0.3728
   3.170   0.9680   0.02155   0.01545  -0.1379  0.3379  0.0410  -2.6366   0.0000   0.0000   0.0000   0.3726
   3.180   0.9687   0.02157   0.01547  -0.1378  0.3379  0.0439  -2.6374   0.0000   0.0000   0.0000   0.3724
   3.190   0.9693   0.02159   0.01549  -0.1377  0.3379  0.0474  -2.6381   0.0000   0.0000   0.0000   0.3722
   3.200   0.9698   0.02160   0.01551  -0.1376  0.3379  0.0517  -2.6387   0.0000   0.0000   0.0000   0.3720
   3.210   0.9704   0.02161   0.01554  -0.1376  0.3379  0.0572  -2.6393   0.0000   0.0000   0.0000   0.3718
   3.220   0.9709   0.02162   0.01556  -0.1375  0.3379  0.0632  -2.6399   0.0000   0.0000   0.0000   0.3716
   3.230   0.9716   0.02164   0.01559  -0.1374  0.3379  0.0635  -2.6408   0.0000   0.0000   0.0000   0.3714
   3.240   0.9723   0.02167   0.01561  -0.1374  0.3378  0.0638  -2.6416   0.0000   0.0000   0.0000   0.3712
   3.250   0.9731   0.02169   0.01564  -0.1373  0.3378  0.0641  -2.6424   0.0000   0.0000   0.0000   0.3710
   3.260   0.9738   0.02171   0.01566  -0.1373  0.3378  0.0647  -2.6432   0.0000   0.0000   0.0000   0.3708
   3.270   0.9745   0.02174   0.01569  -0.1372  0.3378  0.0653  -2.6441   0.0000   0.0000   0.0000   0.3707
   3.280   0.9753   0.02176   0.01571  -0.1372  0.3378  0.0657  -2.6449   0.0000   0.0000   0.0000   0.3705
   3.290   0.9761   0.02178   0.01574  -0.1371  0.3378  0.0660  -2.6458   0.0000   0.0000   0.0000   0.3703
   3.300   0.9768   0.02180   0.01576  -0.1371  0.3377  0.0663  -2.6466   0.0000   0.0000   0.0000   0.3701
   3.310   0.9776   0.02183   0.01579  -0.1370  0.3377  0.0665  -2.6475   0.0000   0.0000   0.0000   0.3699
   3.320   0.9784   0.02185   0.01581  -0.1370  0.3377  0.0668  -2.6484   0.0000   0.0000   0.0000   0.3697
   3.330   0.9792   0.02187   0.01583  -0.1370  0.3377  0.0671  -2.6493   0.0000   0.0000   0.0000   0.3695
   3.340   0.9800   0.02189   0.01586  -0.1369  0.3377  0.0674  -2.6502   0.0000   0.0000   0.0000   0.3694
   3.350   0.9808   0.02192   0.01588  -0.1369  0.3377  0.0676  -2.6510   0.0000   0.0000   0.0000   0.3692
   3.360   0.9816   0.02194   0.01590  -0.1368  0.3377  0.0678  -2.6519   0.0000   0.0000   0.0000   0.3690
   3.370   0.9824   0.02196   0.01593  -0.1368  0.3376  0.0680  -2.6528   0.0000   0.0000   0.0000   0.3688
   3.380   0.9832   0.02198   0.01595  -0.1368  0.3376  0.0682  -2.6537   0.0000   0.0000   0.0000   0.3686
   3.390   0.9840   0.02200   0.01597  -0.1367  0.3376  0.0684  -2.6546   0.0000   0.0000   0.0000   0.3684
   3.400   0.9848   0.02203   0.01600  -0.1367  0.3376  0.0685  -2.6555   0.0000   0.0000   0.0000   0.3683
   3.410   0.9856   0.02205   0.01602  -0.1366  0.3376  0.0687  -2.6565   0.0000   0.0000   0.0000   0.3681
   3.420   0.9864   0.02207   0.01604  -0.1366  0.3376  0.0689  -2.6574   0.0000   0.0000   0.0000   0.3679
   3.430   0.9872   0.02209   0.01606  -0.1366  0.3376  0.0690  -2.6583   0.0000   0.0000   0.0000   0.3677
   3.440   0.9881   0.02211   0.01609  -0.1365  0.3375  0.0692  -2.6592   0.0000   0.0000   0.0000   0.3675
   3.450   0.9889   0.02213   0.01611  -0.1365  0.3375  0.0694  -2.6601   0.0000   0.0000   0.0000   0.3673
   3.460   0.9897   0.02215   0.01613  -0.1365  0.3375  0.0696  -2.6610   0.0000   0.0000   0.0000   0.3672
   3.470   0.9905   0.02218   0.01615  -0.1364  0.3375  0.0697  -2.6619   0.0000   0.0000   0.0000   0.3670
   3.480   0.9913   0.02220   0.01617  -0.1364  0.3375  0.0699  -2.6628   0.0000   0.0000   0.0000   0.3668
   3.490   0.9922   0.02222   0.01620  -0.1363  0.3375  0.0701  -2.6637   0.0000   0.0000   0.0000   0.3666
   3.500   0.9930   0.02224   0.01622  -0.1363  0.3375  0.0702  -2.6647   0.0000   0.0000   0.0000   0.3664
   3.510   0.9938   0.02226   0.01624  -0.1363  0.3374  0.0703  -2.6656   0.0000   0.0000   0.0000   0.3663
   3.520   0.9946   0.02228   0.01626  -0.1362  0.3374  0.0705  -2.6665   0.0000   0.0000   0.0000   0.3661
   3.530   0.9955   0.02230   0.01629  -0.1362  0.3374  0.0706  -2.6674   0.0000   0.0000   0.0000   0.3659
   3.540   0.9963   0.02232   0.01631  -0.1362  0.3374  0.0707  -2.6684   0.0000   0.0000   0.0000   0.3657
   3.550   0.9971   0.02234   0.01633  -0.1361  0.3374  0.0708  -2.6693   0.0000   0.0000   0.0000   0.3655
   3.560   0.9980   0.02237   0.01635  -0.1361  0.3374  0.0709  -2.6702   0.0000   0.0000   0.0000   0.3654
   3.570   0.9988   0.02239   0.01637  -0.1361  0.3374  0.0710  -2.6711   0.0000   0.0000   0.0000   0.3652
   3.580   0.9996   0.02241   0.01640  -0.1360  0.3373  0.0711  -2.6721   0.0000   0.0000   0.0000   0.3650
   3.590   1.0005   0.02243   0.01642  -0.1360  0.3373  0.0711  -2.6730   0.0000   0.0000   0.0000   0.3648
   3.600   1.0013   0.02245   0.01644  -0.1359  0.3373  0.0712  -2.6739   0.0000   0.0000   0.0000   0.3646
   3.610   1.0021   0.02247   0.01646  -0.1359  0.3373  0.0713  -2.6749   0.0000   0.0000   0.0000   0.3645
   3.620   1.0030   0.02249   0.01648  -0.1359  0.3373  0.0713  -2.6758   0.0000   0.0000   0.0000   0.3643
   3.630   1.0038   0.02251   0.01651  -0.1358  0.3373  0.0714  -2.6767   0.0000   0.0000   0.0000   0.3641
   3.640   1.0046   0.02254   0.01653  -0.1358  0.3373  0.0714  -2.6776   0.0000   0.0000   0.0000   0.3639
   3.650   1.0055   0.02256   0.01655  -0.1358  0.3372  0.0714  -2.6786   0.0000   0.0000   0.0000   0.3638
   3.660   1.0063   0.02258   0.01657  -0.1357  0.3372  0.0715  -2.6795   0.0000   0.0000   0.0000   0.3636
   3.670   1.0071   0.02260   0.01659  -0.1357  0.3372  0.0715  -2.6804   0.0000   0.0000   0.0000   0.3634
   3.680   1.0080   0.02262   0.01662  -0.1357  0.3372  0.0715  -2.6814   0.0000   0.0000   0.0000   0.3632
   3.690   1.0088   0.02264   0.01664  -0.1356  0.3372  0.0715  -2.6823   0.0000   0.0000   0.0000   0.3631
   3.700   1.0096   0.02266   0.01666  -0.1356  0.3372  0.0715  -2.6832   0.0000   0.0000   0.0000   0.3629
   3.710   1.0105   0.02269   0.01668  -0.1356  0.3372  0.0716  -2.6842   0.0000   0.0000   0.0000   0.3627
   3.720   1.0113   0.02271   0.01671  -0.1355  0.3371  0.0716  -2.6851   0.0000   0.0000   0.0000   0.3625
   3.730   1.0122   0.02273   0.01673  -0.1355  0.3371  0.0716  -2.6860   0.0000   0.0000   0.0000   0.3624
   3.740   1.0130   0.02275   0.01675  -0.1355  0.3371  0.0716  -2.6869   0.0000   0.0000   0.0000   0.3622
   3.750   1.0138   0.02277   0.01677  -0.1354  0.3371  0.0716  -2.6879   0.0000   0.0000   0.0000   0.3620
   3.760   1.0147   0.02279   0.01679  -0.1354  0.3371  0.0716  -2.6888   0.0000   0.0000   0.0000   0.3618
   3.770   1.0155   0.02281   0.01682  -0.1354  0.3371  0.0717  -2.6897   0.0000   0.0000   0.0000   0.3617
   3.780   1.0163   0.02284   0.01684  -0.1353  0.3371  0.0717  -2.6906   0.0000   0.0000   0.0000   0.3615
   3.790   1.0172   0.02286   0.01686  -0.1353  0.3370  0.0717  -2.6916   0.0000   0.0000   0.0000   0.3613
   3.800   1.0180   0.02288   0.01688  -0.1352  0.3370  0.0717  -2.6925   0.0000   0.0000   0.0000   0.3612
   3.810   1.0188   0.02290   0.01691  -0.1352  0.3370  0.0717  -2.6934   0.0000   0.0000   0.0000   0.3610
   3.820   1.0196   0.02293   0.01693  -0.1352  0.3370  0.0717  -2.6942   0.0000   0.0000   0.0000   0.3608
   3.830   1.0204   0.02295   0.01696  -0.1351  0.3370  0.0717  -2.6951   0.0000   0.0000   0.0000   0.3607
   3.840   1.0211   0.02298   0.01698  -0.1351  0.3370  0.0718  -2.6959   0.0000   0.0000   0.0000   0.3605
   3.850   1.0219   0.02300   0.01701  -0.1350  0.3369  0.0718  -2.6968   0.0000   0.0000   0.0000   0.3603
   3.860   1.0226   0.02303   0.01704  -0.1350  0.3369  0.0718  -2.6976   0.0000   0.0000   0.0000   0.3601
   3.870   1.0234   0.02306   0.01707  -0.1350  0.3369  0.0718  -2.6984   0.0000   0.0000   0.0000   0.3600
   3.880   1.0241   0.02308   0.01710  -0.1349  0.3369  0.0718  -2.6992   0.0000   0.0000   0.0000   0.3598
   3.890   1.0248   0.02311   0.01712  -0.1349  0.3369  0.0718  -2.6999   0.0000   0.0000   0.0000   0.3596
   3.900   1.0255   0.02314   0.01715  -0.1348  0.3369  0.0719  -2.7007   0.0000   0.0000   0.0000   0.3595
   3.910   1.0262   0.02317   0.01718  -0.1348  0.3369  0.0719  -2.7015   0.0000   0.0000   0.0000   0.3593
   3.920   1.0269   0.02320   0.01721  -0.1347  0.3368  0.0719  -2.7022   0.0000   0.0000   0.0000   0.3592
   3.930   1.0276   0.02323   0.01724  -0.1347  0.3368  0.0719  -2.7030   0.0000   0.0000   0.0000   0.3590
   3.940   1.0283   0.02326   0.01727  -0.1346  0.3368  0.0719  -2.7037   0.0000   0.0000   0.0000   0.3588
   3.950   1.0290   0.02329   0.01730  -0.1346  0.3368  0.0719  -2.7045   0.0000   0.0000   0.0000   0.3587
   3.960   1.0297   0.02332   0.01733  -0.1345  0.3368  0.0720  -2.7052   0.0000   0.0000   0.0000   0.3585
   3.970   1.0304   0.02335   0.01736  -0.1345  0.3368  0.0720  -2.7060   0.0000   0.0000   0.0000   0.3583
   3.980   1.0311   0.02338   0.01739  -0.1344  0.3368  0.0720  -2.7067   0.0000   0.0000   0.0000   0.3582
   3.990   1.0318   0.02340   0.01742  -0.1344  0.3367  0.0720  -2.7075   0.0000   0.0000   0.0000   0.3580
   4.000   1.0325   0.02343   0.01745  -0.1344  0.3367  0.0720  -2.7083   0.0000   0.0000   0.0000   0.3578
   4.010   1.0332   0.02346   0.01748  -0.1343  0.3367  0.0720  -2.7091   0.0000   0.0000   0.0000   0.3577
   4.020   1.0340   0.02349   0.01751  -0.1343  0.3367  0.0721  -2.7099   0.0000   0.0000   0.0000   0.3575
   4.030   1.0347   0.02352   0.01754  -0.1342  0.3367  0.0721  -2.7107   0.0000   0.0000   0.0000   0.3573
   4.040   1.0355   0.02354   0.01757  -0.1342  0.3367  0.0721  -2.7115   0.0000   0.0000   0.0000   0.3572
   4.050   1.0362   0.02357   0.01759  -0.1341  0.3367  0.0721  -2.7123   0.0000   0.0000   0.0000   0.3570
   4.060   1.0370   0.02360   0.01762  -0.1341  0.3366  0.0721  -2.7131   0.0000   0.0000   0.0000   0.3569
   4.070   1.0377   0.02362   0.01765  -0.1341  0.3366  0.0722  -2.7140   0.0000   0.0000   0.0000   0.3567
   4.080   1.0385   0.02365   0.01768  -0.1340  0.3366  0.0722  -2.7148   0.0000   0.0000   0.0000   0.3565
   4.090   1.0393   0.02367   0.01770  -0.1340  0.3366  0.0722  -2.7156   0.0000   0.0000   0.0000   0.3564
   4.100   1.0400   0.02370   0.01773  -0.1339  0.3366  0.0723  -2.7165   0.0000   0.0000   0.0000   0.3562
   4.110   1.0408   0.02373   0.01776  -0.1339  0.3366  0.0723  -2.7173   0.0000   0.0000   0.0000   0.3561
   4.120   1.0416   0.02375   0.01778  -0.1339  0.3366  0.0723  -2.7182   0.0000   0.0000   0.0000   0.3559
   4.130   1.0424   0.02378   0.01781  -0.1338  0.3365  0.0724  -2.7190   0.0000   0.0000   0.0000   0.3557
   4.140   1.0432   0.02380   0.01783  -0.1338  0.3365  0.0724  -2.7199   0.0000   0.0000   0.0000   0.3556
   4.150   1.0439   0.02383   0.01786  -0.1338  0.3365  0.0724  -2.7207   0.0000   0.0000   0.0000   0.3554
   4.160   1.0447   0.02385   0.01788  -0.1337  0.3365  0.0725  -2.7216   0.0000   0.0000   0.0000   0.3552
   4.170   1.0455   0.02388   0.01791  -0.1337  0.3365  0.0725  -2.7225   0.0000   0.0000   0.0000   0.3551
   4.180   1.0463   0.02390   0.01794  -0.1336  0.3365  0.0725  -2.7233   0.0000   0.0000   0.0000   0.3549
   4.190   1.0471   0.02393   0.01796  -0.1336  0.3364  0.0726  -2.7242   0.0000   0.0000   0.0000   0.3548
   4.200   1.0479   0.02395   0.01799  -0.1336  0.3364  0.0726  -2.7251   0.0000   0.0000   0.0000   0.3546
   4.210   1.0487   0.02397   0.01801  -0.1335  0.3364  0.0726  -2.7259   0.0000   0.0000   0.0000   0.3544
   4.220   1.0495   0.02400   0.01804  -0.1335  0.3364  0.0727  -2.7268   0.0000   0.0000   0.0000   0.3543
   4.230   1.0503   0.02402   0.01806  -0.1335  0.3364  0.0727  -2.7277   0.0000   0.0000   0.0000   0.3541
   4.240   1.0511   0.02405   0.01809  -0.1334  0.3364  0.0728  -2.7286   0.0000   0.0000   0.0000   0.3540
   4.250   1.0519   0.02407   0.01811  -0.1334  0.3364  0.0728  -2.7294   0.0000   0.0000   0.0000   0.3538
   4.260   1.0527   0.02410   0.01814  -0.1334  0.3363  0.0729  -2.7303   0.0000   0.0000   0.0000   0.3537
   4.270   1.0535   0.02412   0.01816  -0.1333  0.3363  0.0729  -2.7312   0.0000   0.0000   0.0000   0.3535
   4.280   1.0543   0.02414   0.01819  -0.1333  0.3363  0.0729  -2.7321   0.0000   0.0000   0.0000   0.3533
   4.290   1.0551   0.02417   0.01821  -0.1333  0.3363  0.0730  -2.7330   0.0000   0.0000   0.0000   0.3532
   4.300   1.0560   0.02419   0.01824  -0.1332  0.3363  0.0730  -2.7338   0.0000   0.0000   0.0000   0.3530
   4.310   1.0568   0.02422   0.01826  -0.1332  0.3363  0.0731  -2.7347   0.0000   0.0000   0.0000   0.3529
   4.320   1.0576   0.02424   0.01829  -0.1332  0.3363  0.0731  -2.7356   0.0000   0.0000   0.0000   0.3527
   4.330   1.0584   0.02426   0.01831  -0.1331  0.3362  0.0732  -2.7365   0.0000   0.0000   0.0000   0.3526
   4.340   1.0592   0.02429   0.01833  -0.1331  0.3362  0.0732  -2.7374   0.0000   0.0000   0.0000   0.3524
   4.350   1.0600   0.02431   0.01836  -0.1331  0.3362  0.0732  -2.7382   0.0000   0.0000   0.0000   0.3522
   4.360   1.0608   0.02434   0.01838  -0.1330  0.3362  0.0733  -2.7391   0.0000   0.0000   0.0000   0.3521
   4.370   1.0616   0.02436   0.01841  -0.1330  0.3362  0.0733  -2.7400   0.0000   0.0000   0.0000   0.3519
   4.380   1.0624   0.02438   0.01843  -0.1330  0.3362  0.0734  -2.7409   0.0000   0.0000   0.0000   0.3518
   4.390   1.0633   0.02441   0.01846  -0.1329  0.3362  0.0734  -2.7418   0.0000   0.0000   0.0000   0.3516
   4.400   1.0641   0.02443   0.01848  -0.1329  0.3361  0.0735  -2.7427   0.0000   0.0000   0.0000   0.3515
   4.410   1.0649   0.02445   0.01851  -0.1328  0.3361  0.0735  -2.7435   0.0000   0.0000   0.0000   0.3513
   4.420   1.0657   0.02448   0.01853  -0.1328  0.3361  0.0736  -2.7444   0.0000   0.0000   0.0000   0.3512
   4.430   1.0665   0.02450   0.01856  -0.1328  0.3361  0.0736  -2.7453   0.0000   0.0000   0.0000   0.3510
   4.440   1.0673   0.02453   0.01858  -0.1327  0.3361  0.0736  -2.7462   0.0000   0.0000   0.0000   0.3508
   4.450   1.0681   0.02455   0.01861  -0.1327  0.3361  0.0737  -2.7471   0.0000   0.0000   0.0000   0.3507
   4.460   1.0689   0.02457   0.01863  -0.1327  0.3361  0.0737  -2.7479   0.0000   0.0000   0.0000   0.3505
   4.470   1.0697   0.02460   0.01865  -0.1326  0.3361  0.0738  -2.7488   0.0000   0.0000   0.0000   0.3504
   4.480   1.0706   0.02462   0.01868  -0.1326  0.3360  0.0738  -2.7497   0.0000   0.0000   0.0000   0.3502
   4.490   1.0714   0.02465   0.01870  -0.1326  0.3360  0.0739  -2.7506   0.0000   0.0000   0.0000   0.3501
   4.500   1.0722   0.02467   0.01873  -0.1325  0.3360  0.0739  -2.7515   0.0000   0.0000   0.0000   0.3499
   4.510   1.0730   0.02469   0.01875  -0.1325  0.3360  0.0740  -2.7523   0.0000   0.0000   0.0000   0.3498
   4.520   1.0738   0.02472   0.01878  -0.1325  0.3360  0.0740  -2.7532   0.0000   0.0000   0.0000   0.3496
   4.530   1.0746   0.02474   0.01880  -0.1324  0.3360  0.0741  -2.7541   0.0000   0.0000   0.0000   0.3495
   4.540   1.0754   0.02477   0.01883  -0.1324  0.3360  0.0741  -2.7550   0.0000   0.0000   0.0000   0.3493
   4.550   1.0762   0.02479   0.01885  -0.1324  0.3359  0.0742  -2.7558   0.0000   0.0000   0.0000   0.3492
   4.560   1.0770   0.02481   0.01888  -0.1323  0.3359  0.0742  -2.7567   0.0000   0.0000   0.0000   0.3490
   4.570   1.0778   0.02484   0.01890  -0.1323  0.3359  0.0743  -2.7576   0.0000   0.0000   0.0000   0.3489
   4.580   1.0786   0.02486   0.01893  -0.1323  0.3359  0.0743  -2.7584   0.0000   0.0000   0.0000   0.3487
   4.590   1.0794   0.02489   0.01895  -0.1322  0.3359  0.0744  -2.7593   0.0000   0.0000   0.0000   0.3486
   4.600   1.0802   0.02491   0.01898  -0.1322  0.3359  0.0744  -2.7602   0.0000   0.0000   0.0000   0.3484
   4.610   1.0810   0.02494   0.01901  -0.1322  0.3359  0.0745  -2.7610   0.0000   0.0000   0.0000   0.3483
   4.620   1.0818   0.02496   0.01903  -0.1321  0.3358  0.0745  -2.7618   0.0000   0.0000   0.0000   0.3481
   4.630   1.0825   0.02499   0.01906  -0.1321  0.3358  0.0746  -2.7627   0.0000   0.0000   0.0000   0.3480
   4.640   1.0833   0.02502   0.01909  -0.1321  0.3358  0.0746  -2.7634   0.0000   0.0000   0.0000   0.3478
   4.650   1.0840   0.02505   0.01912  -0.1320  0.3358  0.0747  -2.7642   0.0000   0.0000   0.0000   0.3477
   4.660   1.0847   0.02508   0.01915  -0.1320  0.3358  0.0747  -2.7650   0.0000   0.0000   0.0000   0.3475
   4.670   1.0854   0.02511   0.01918  -0.1319  0.3358  0.0748  -2.7657   0.0000   0.0000   0.0000   0.3474
   4.680   1.0861   0.02514   0.01921  -0.1319  0.3358  0.0748  -2.7664   0.0000   0.0000   0.0000   0.3472
   4.690   1.0868   0.02517   0.01925  -0.1318  0.3357  0.0749  -2.7671   0.0000   0.0000   0.0000   0.3471
   4.700   1.0874   0.02520   0.01928  -0.1318  0.3357  0.0749  -2.7678   0.0000   0.0000   0.0000   0.3469
   4.710   1.0881   0.02523   0.01931  -0.1317  0.3357  0.0750  -2.7685   0.0000   0.0000   0.0000   0.3468
   4.720   1.0887   0.02527   0.01935  -0.1317  0.3357  0.0750  -2.7691   0.0000   0.0000   0.0000   0.3466
   4.730   1.0894   0.02530   0.01938  -0.1316  0.3357  0.0751  -2.7698   0.0000   0.0000   0.0000   0.3465
   4.740   1.0901   0.02533   0.01942  -0.1316  0.3357  0.0751  -2.7705   0.0000   0.0000   0.0000   0.3464
   4.750   1.0907   0.02537   0.01945  -0.1316  0.3357  0.0751  -2.7712   0.0000   0.0000   0.0000   0.3462
   4.760   1.0913   0.02540   0.01949  -0.1315  0.3356  0.0752  -2.7718   0.0000   0.0000   0.0000   0.3461
   4.770   1.0920   0.02543   0.01952  -0.1315  0.3356  0.0752  -2.7725   0.0000   0.0000   0.0000   0.3459
   4.780   1.0927   0.02547   0.01955  -0.1314  0.3356  0.0753  -2.7732   0.0000   0.0000   0.0000   0.3458
   4.790   1.0933   0.02550   0.01959  -0.1314  0.3356  0.0753  -2.7739   0.0000   0.0000   0.0000   0.3456
   4.800   1.0940   0.02553   0.01962  -0.1313  0.3356  0.0754  -2.7746   0.0000   0.0000   0.0000   0.3455
   4.810   1.0947   0.02557   0.01966  -0.1313  0.3355  0.0754  -2.7753   0.0000   0.0000   0.0000   0.3454
   4.820   1.0953   0.02560   0.01969  -0.1312  0.3355  0.0754  -2.7760   0.0000   0.0000   0.0000   0.3452
   4.830   1.0960   0.02563   0.01972  -0.1312  0.3355  0.0755  -2.7767   0.0000   0.0000   0.0000   0.3451
   4.840   1.0967   0.02566   0.01975  -0.1311  0.3355  0.0755  -2.7774   0.0000   0.0000   0.0000   0.3449
   4.850   1.0974   0.02569   0.01978  -0.1311  0.3355  0.0756  -2.7781   0.0000   0.0000   0.0000   0.3448
   4.860   1.0981   0.02572   0.01982  -0.1311  0.3354  0.0756  -2.7789   0.0000   0.0000   0.0000   0.3446
   4.870   1.0988   0.02575   0.01985  -0.1310  0.3354  0.0756  -2.7796   0.0000   0.0000   0.0000   0.3445
   4.880   1.0995   0.02578   0.01988  -0.1310  0.3354  0.0757  -2.7804   0.0000   0.0000   0.0000   0.3444
   4.890   1.1003   0.02581   0.01991  -0.1309  0.3354  0.0757  -2.7811   0.0000   0.0000   0.0000   0.3442
   4.900   1.1010   0.02584   0.01994  -0.1309  0.3354  0.0757  -2.7819   0.0000   0.0000   0.0000   0.3441
   4.910   1.1017   0.02587   0.01997  -0.1309  0.3353  0.0758  -2.7826   0.0000   0.0000   0.0000   0.3439
   4.920   1.1024   0.02590   0.02000  -0.1308  0.3353  0.0758  -2.7834   0.0000   0.0000   0.0000   0.3438
   4.930   1.1032   0.02593   0.02003  -0.1308  0.3353  0.0758  -2.7841   0.0000   0.0000   0.0000   0.3436
   4.940   1.1039   0.02596   0.02006  -0.1307  0.3353  0.0758  -2.7849   0.0000   0.0000   0.0000   0.3435
   4.950   1.1046   0.02599   0.02009  -0.1307  0.3352  0.0759  -2.7857   0.0000   0.0000   0.0000   0.3434
   4.960   1.1054   0.02602   0.02012  -0.1307  0.3352  0.0759  -2.7865   0.0000   0.0000   0.0000   0.3432
   4.970   1.1061   0.02605   0.02015  -0.1306  0.3352  0.0759  -2.7872   0.0000   0.0000   0.0000   0.3431
   4.980   1.1068   0.02608   0.02018  -0.1306  0.3352  0.0759  -2.7880   0.0000   0.0000   0.0000   0.3429
   4.990   1.1076   0.02610   0.02021  -0.1306  0.3352  0.0760  -2.7888   0.0000   0.0000   0.0000   0.3428
   5.000   1.1083   0.02613   0.02024  -0.1305  0.3351  0.0760  -2.7896   0.0000   0.0000   0.0000   0.3427
   5.010   1.1091   0.02616   0.02027  -0.1305  0.3351  0.0760  -2.7903   0.0000   0.0000   0.0000   0.3425
   5.020   1.1098   0.02619   0.02030  -0.1304  0.3351  0.0760  -2.7911   0.0000   0.0000   0.0000   0.3424
   5.030   1.1105   0.02622   0.02033  -0.1304  0.3351  0.0761  -2.7919   0.0000   0.0000   0.0000   0.3422
   5.040   1.1113   0.02625   0.02035  -0.1304  0.3350  0.0761  -2.7927   0.0000   0.0000   0.0000   0.3421
   5.050   1.1120   0.02628   0.02038  -0.1303  0.3350  0.0761  -2.7935   0.0000   0.0000   0.0000   0.3420
   5.060   1.1128   0.02630   0.02041  -0.1303  0.3350  0.0761  -2.7943   0.0000   0.0000   0.0000   0.3418
   5.070   1.1135   0.02633   0.02044  -0.1303  0.3349  0.0761  -2.7951   0.0000   0.0000   0.0000   0.3417
   5.080   1.1143   0.02636   0.02047  -0.1302  0.3349  0.0762  -2.7958   0.0000   0.0000   0.0000   0.3415
   5.090   1.1150   0.02639   0.02050  -0.1302  0.3349  0.0762  -2.7966   0.0000   0.0000   0.0000   0.3414
   5.100   1.1158   0.02642   0.02053  -0.1301  0.3349  0.0762  -2.7974   0.0000   0.0000   0.0000   0.3413
   5.110   1.1165   0.02645   0.02056  -0.1301  0.3348  0.0762  -2.7982   0.0000   0.0000   0.0000   0.3411
   5.120   1.1173   0.02647   0.02059  -0.1301  0.3348  0.0763  -2.7990   0.0000   0.0000   0.0000   0.3410
   5.130   1.1180   0.02650   0.02062  -0.1300  0.3348  0.0763  -2.7998   0.0000   0.0000   0.0000   0.3409
   5.140   1.1188   0.02653   0.02065  -0.1300  0.3347  0.0763  -2.8006   0.0000   0.0000   0.0000   0.3407
   5.150   1.1195   0.02656   0.02067  -0.1300  0.3347  0.0763  -2.8013   0.0000   0.0000   0.0000   0.3406
   5.160   1.1202   0.02659   0.02070  -0.1299  0.3347  0.0764  -2.8021   0.0000   0.0000   0.0000   0.3404
   5.170   1.1210   0.02662   0.02073  -0.1299  0.3347  0.0764  -2.8029   0.0000   0.0000   0.0000   0.3403
   5.180   1.1217   0.02664   0.02076  -0.1299  0.3346  0.0764  -2.8037   0.0000   0.0000   0.0000   0.3402
   5.190   1.1225   0.02667   0.02079  -0.1298  0.3346  0.0764  -2.8045   0.0000   0.0000   0.0000   0.3400
   5.200   1.1232   0.02670   0.02082  -0.1298  0.3346  0.0764  -2.8053   0.0000   0.0000   0.0000   0.3399
   5.210   1.1240   0.02673   0.02085  -0.1297  0.3345  0.0765  -2.8060   0.0000   0.0000   0.0000   0.3398
   5.220   1.1247   0.02676   0.02088  -0.1297  0.3345  0.0765  -2.8068   0.0000   0.0000   0.0000   0.3396
   5.230   1.1255   0.02679   0.02091  -0.1297  0.3345  0.0765  -2.8076   0.0000   0.0000   0.0000   0.3395
   5.240   1.1262   0.02681   0.02094  -0.1296  0.3345  0.0765  -2.8084   0.0000   0.0000   0.0000   0.3393
   5.250   1.1270   0.02684   0.02097  -0.1296  0.3344  0.0766  -2.8092   0.0000   0.0000   0.0000   0.3392
   5.260   1.1277   0.02687   0.02100  -0.1296  0.3344  0.0766  -2.8099   0.0000   0.0000   0.0000   0.3391
   5.270   1.1284   0.02690   0.02102  -0.1295  0.3344  0.0766  -2.8107   0.0000   0.0000   0.0000   0.3389
   5.280   1.1292   0.02693   0.02105  -0.1295  0.3343  0.0766  -2.8115   0.0000   0.0000   0.0000   0.3388
   5.290   1.1299   0.02696   0.02108  -0.1294  0.3343  0.0767  -2.8123   0.0000   0.0000   0.0000   0.3387
   5.300   1.1307   0.02699   0.02111  -0.1294  0.3343  0.0767  -2.8130   0.0000   0.0000   0.0000   0.3385
   5.310   1.1314   0.02702   0.02114  -0.1294  0.3342  0.0767  -2.8138   0.0000   0.0000   0.0000   0.3384
   5.320   1.1322   0.02704   0.02117  -0.1293  0.3342  0.0767  -2.8146   0.0000   0.0000   0.0000   0.3383
   5.330   1.1329   0.02707   0.02120  -0.1293  0.3342  0.0768  -2.8154   0.0000   0.0000   0.0000   0.3381
   5.340   1.1337   0.02710   0.02123  -0.1293  0.3342  0.0768  -2.8162   0.0000   0.0000   0.0000   0.3380
   5.350   1.1344   0.02713   0.02126  -0.1292  0.3341  0.0768  -2.8170   0.0000   0.0000   0.0000   0.3379
   5.360   1.1352   0.02716   0.02129  -0.1292  0.3341  0.0768  -2.8178   0.0000   0.0000   0.0000   0.3377
   5.370   1.1360   0.02718   0.02131  -0.1292  0.3341  0.0768  -2.8187   0.0000   0.0000   0.0000   0.3376
   5.380   1.1368   0.02721   0.02134  -0.1291  0.3341  0.0769  -2.8195   0.0000   0.0000   0.0000   0.3375
   5.390   1.1376   0.02724   0.02137  -0.1291  0.3340  0.0769  -2.8203   0.0000   0.0000   0.0000   0.3373
   5.400   1.1383   0.02727   0.02140  -0.1291  0.3340  0.0769  -2.8211   0.0000   0.0000   0.0000   0.3372
   5.410   1.1391   0.02730   0.02143  -0.1290  0.3340  0.0769  -2.8218   0.0000   0.0000   0.0000   0.3371
   5.420   1.1398   0.02733   0.02147  -0.1290  0.3340  0.0770  -2.8225   0.0000   0.0000   0.0000   0.3369
   5.430   1.1405   0.02736   0.02150  -0.1290  0.3340  0.0770  -2.8233   0.0000   0.0000   0.0000   0.3368
   5.440   1.1412   0.02740   0.02153  -0.1289  0.3339  0.0770  -2.8239   0.0000   0.0000   0.0000   0.3367
   5.450   1.1418   0.02743   0.02157  -0.1289  0.3339  0.0770  -2.8246   0.0000   0.0000   0.0000   0.3365
   5.460   1.1425   0.02747   0.02161  -0.1288  0.3339  0.0771  -2.8252   0.0000   0.0000   0.0000   0.3364
   5.470   1.1431   0.02750   0.02164  -0.1288  0.3339  0.0771  -2.8259   0.0000   0.0000   0.0000   0.3363
   5.480   1.1437   0.02754   0.02168  -0.1288  0.3338  0.0771  -2.8265   0.0000   0.0000   0.0000   0.3362
   5.490   1.1444   0.02758   0.02172  -0.1287  0.3338  0.0771  -2.8271   0.0000   0.0000   0.0000   0.3360
   5.500   1.1450   0.02761   0.02176  -0.1287  0.3338  0.0771  -2.8277   0.0000   0.0000   0.0000   0.3359
   5.510   1.1456   0.02765   0.02180  -0.1286  0.3338  0.0772  -2.8283   0.0000   0.0000   0.0000   0.3358
   5.520   1.1462   0.02769   0.02183  -0.1286  0.3337  0.0772  -2.8289   0.0000   0.0000   0.0000   0.3356
   5.530   1.1469   0.02772   0.02187  -0.1285  0.3337  0.0772  -2.8295   0.0000   0.0000   0.0000   0.3355
   5.540   1.1475   0.02776   0.02191  -0.1285  0.3337  0.0772  -2.8301   0.0000   0.0000   0.0000   0.3354
   5.550   1.1481   0.02780   0.02195  -0.1284  0.3336  0.0773  -2.8307   0.0000   0.0000   0.0000   0.3353
   5.560   1.1487   0.02784   0.02199  -0.1284  0.3336  0.0773  -2.8313   0.0000   0.0000   0.0000   0.3351
   5.570   1.1494   0.02787   0.02202  -0.1284  0.3336  0.0773  -2.8320   0.0000   0.0000   0.0000   0.3350
   5.580   1.1500   0.02791   0.02206  -0.1283  0.3336  0.0773  -2.8326   0.0000   0.0000   0.0000   0.3349
   5.590   1.1507   0.02794   0.02210  -0.1283  0.3335  0.0773  -2.8333   0.0000   0.0000   0.0000   0.3347
   5.600   1.1514   0.02798   0.02213  -0.1282  0.3335  0.0774  -2.8339   0.0000   0.0000   0.0000   0.3346
   5.610   1.1520   0.02801   0.02217  -0.1282  0.3335  0.0774  -2.8346   0.0000   0.0000   0.0000   0.3345
   5.620   1.1527   0.02804   0.02220  -0.1281  0.3335  0.0774  -2.8353   0.0000   0.0000   0.0000   0.3344
   5.630   1.1534   0.02808   0.02224  -0.1281  0.3334  0.0774  -2.8360   0.0000   0.0000   0.0000   0.3342
   5.640   1.1541   0.02811   0.02227  -0.1281  0.3334  0.0775  -2.8367   0.0000   0.0000   0.0000   0.3341
   5.650   1.1548   0.02814   0.02230  -0.1280  0.3334  0.0775  -2.8374   0.0000   0.0000   0.0000   0.3340
   5.660   1.1555   0.02818   0.02234  -0.1280  0.3334  0.0775  -2.8381   0.0000   0.0000   0.0000   0.3339
   5.670   1.1562   0.02821   0.02237  -0.1280  0.3333  0.0775  -2.8388   0.0000   0.0000   0.0000   0.3337
   5.680   1.1569   0.02824   0.02240  -0.1279  0.3333  0.0776  -2.8395   0.0000   0.0000   0.0000   0.3336
   5.690   1.1577   0.02827   0.02243  -0.1279  0.3333  0.0776  -2.8402   0.0000   0.0000   0.0000   0.3335
   5.700   1.1584   0.02830   0.02247  -0.1279  0.3333  0.0776  -2.8410   0.0000   0.0000   0.0000   0.3334
   5.710   1.1591   0.02833   0.02250  -0.1278  0.3332  0.0776  -2.8417   0.0000   0.0000   0.0000   0.3332
   5.720   1.1598   0.02837   0.02253  -0.1278  0.3332  0.0777  -2.8424   0.0000   0.0000   0.0000   0.3331
   5.730   1.1606   0.02840   0.02256  -0.1277  0.3332  0.0777  -2.8432   0.0000   0.0000   0.0000   0.3330
   5.740   1.1613   0.02843   0.02260  -0.1277  0.3332  0.0777  -2.8439   0.0000   0.0000   0.0000   0.3328
   5.750   1.1620   0.02846   0.02263  -0.1277  0.3331  0.0777  -2.8447   0.0000   0.0000   0.0000   0.3327
   5.760   1.1628   0.02849   0.02266  -0.1276  0.3331  0.0777  -2.8454   0.0000   0.0000   0.0000   0.3326
   5.770   1.1635   0.02852   0.02269  -0.1276  0.3331  0.0778  -2.8462   0.0000   0.0000   0.0000   0.3325
   5.780   1.1643   0.02855   0.02272  -0.1276  0.3331  0.0778  -2.8469   0.0000   0.0000   0.0000   0.3323
   5.790   1.1650   0.02858   0.02275  -0.1275  0.3330  0.0778  -2.8477   0.0000   0.0000   0.0000   0.3322
   5.800   1.1658   0.02861   0.02278  -0.1275  0.3330  0.0778  -2.8485   0.0000   0.0000   0.0000   0.3321
   5.810   1.1665   0.02864   0.02281  -0.1275  0.3330  0.0779  -2.8492   0.0000   0.0000   0.0000   0.3320
   5.820   1.1673   0.02867   0.02284  -0.1275  0.3330  0.0779  -2.8500   0.0000   0.0000   0.0000   0.3318
   5.830   1.1680   0.02870   0.02288  -0.1274  0.3330  0.0779  -2.8508   0.0000   0.0000   0.0000   0.3317
   5.840   1.1688   0.02873   0.02291  -0.1274  0.3329  0.0779  -2.8515   0.0000   0.0000   0.0000   0.3316
   5.850   1.1695   0.02876   0.02294  -0.1274  0.3329  0.0780  -2.8523   0.0000   0.0000   0.0000   0.3315
   5.860   1.1703   0.02879   0.02297  -0.1273  0.3329  0.0780  -2.8531   0.0000   0.0000   0.0000   0.3313
   5.870   1.1711   0.02882   0.02300  -0.1273  0.3329  0.0780  -2.8538   0.0000   0.0000   0.0000   0.3312
   5.880   1.1718   0.02885   0.02303  -0.1273  0.3329  0.0780  -2.8546   0.0000   0.0000   0.0000   0.3311
   5.890   1.1726   0.02888   0.02306  -0.1272  0.3328  0.0781  -2.8554   0.0000   0.0000   0.0000   0.3310
   5.900   1.1733   0.02891   0.02309  -0.1272  0.3328  0.0781  -2.8562   0.0000   0.0000   0.0000   0.3309
   5.910   1.1741   0.02893   0.02312  -0.1272  0.3328  0.0781  -2.8569   0.0000   0.0000   0.0000   0.3307
   5.920   1.1749   0.02896   0.02315  -0.1271  0.3328  0.0782  -2.8577   0.0000   0.0000   0.0000   0.3306
   5.930   1.1756   0.02899   0.02318  -0.1271  0.3328  0.0782  -2.8585   0.0000   0.0000   0.0000   0.3305
   5.940   1.1764   0.02902   0.02321  -0.1271  0.3327  0.0782  -2.8593   0.0000   0.0000   0.0000   0.3304
   5.950   1.1772   0.02905   0.02324  -0.1270  0.3327  0.0783  -2.8600   0.0000   0.0000   0.0000   0.3302
   5.960   1.1779   0.02908   0.02327  -0.1270  0.3327  0.0783  -2.8608   0.0000   0.0000   0.0000   0.3301
   5.970   1.1787   0.02911   0.02330  -0.1270  0.3327  0.0784  -2.8616   0.0000   0.0000   0.0000   0.3300
   5.980   1.1795   0.02914   0.02333  -0.1270  0.3327  0.0784  -2.8624   0.0000   0.0000   0.0000   0.3299
   5.990   1.1803   0.02917   0.02336  -0.1269  0.3327  0.0785  -2.8632   0.0000   0.0000   0.0000   0.3298
   6.000   1.1811   0.02920   0.02339  -0.1269  0.3327  0.0786  -2.8640   0.0000   0.0000   0.0000   0.3296
   6.010   1.1818   0.02922   0.02342  -0.1269  0.3327  0.0786  -2.8648   0.0000   0.0000   0.0000   0.3295
   6.020   1.1826   0.02925   0.02345  -0.1268  0.3326  0.0787  -2.8656   0.0000   0.0000   0.0000   0.3294
   6.030   1.1834   0.02928   0.02348  -0.1268  0.3326  0.0787  -2.8663   0.0000   0.0000   0.0000   0.3293
   6.040   1.1842   0.02931   0.02351  -0.1268  0.3326  0.0788  -2.8671   0.0000   0.0000   0.0000   0.3291
   6.050   1.1850   0.02934   0.02354  -0.1268  0.3326  0.0789  -2.8679   0.0000   0.0000   0.0000   0.3290
   6.060   1.1858   0.02937   0.02357  -0.1267  0.3326  0.0790  -2.8687   0.0000   0.0000   0.0000   0.3289
   6.070   1.1865   0.02940   0.02360  -0.1267  0.3326  0.0790  -2.8695   0.0000   0.0000   0.0000   0.3288
   6.080   1.1873   0.02943   0.02363  -0.1267  0.3326  0.0791  -2.8703   0.0000   0.0000   0.0000   0.3287
   6.090   1.1881   0.02946   0.02366  -0.1266  0.3326  0.0792  -2.8711   0.0000   0.0000   0.0000   0.3285
   6.100   1.1889   0.02948   0.02369  -0.1266  0.3326  0.0793  -2.8719   0.0000   0.0000   0.0000   0.3284
   6.110   1.1897   0.02951   0.02372  -0.1266  0.3325  0.0793  -2.8726   0.0000   0.0000   0.0000   0.3283
   6.120   1.1904   0.02954   0.02375  -0.1266  0.3325  0.0794  -2.8734   0.0000   0.0000   0.0000   0.3282
   6.130   1.1912   0.02957   0.02378  -0.1265  0.3325  0.0795  -2.8742   0.0000   0.0000   0.0000   0.3281
   6.140   1.1920   0.02960   0.02381  -0.1265  0.3325  0.0796  -2.8750   0.0000   0.0000   0.0000   0.3279
   6.150   1.1927   0.02963   0.02384  -0.1265  0.3325  0.0797  -2.8758   0.0000   0.0000   0.0000   0.3278
   6.160   1.1935   0.02966   0.02387  -0.1264  0.3325  0.0798  -2.8765   0.0000   0.0000   0.0000   0.3277
   6.170   1.1942   0.02969   0.02391  -0.1264  0.3325  0.0799  -2.8772   0.0000   0.0000   0.0000   0.3276
   6.180   1.1949   0.02973   0.02394  -0.1264  0.3325  0.0801  -2.8779   0.0000   0.0000   0.0000   0.3275
   6.190   1.1956   0.02976   0.02397  -0.1263  0.3325  0.0802  -2.8786   0.0000   0.0000   0.0000   0.3274
   6.200   1.1963   0.02979   0.02401  -0.1263  0.3324  0.0803  -2.8792   0.0000   0.0000   0.0000   0.3272
   6.210   1.1970   0.02983   0.02405  -0.1263  0.3324  0.0804  -2.8798   0.0000   0.0000   0.0000   0.3271
   6.220   1.1976   0.02987   0.02409  -0.1262  0.3324  0.0805  -2.8804   0.0000   0.0000   0.0000   0.3270
   6.230   1.1982   0.02991   0.02413  -0.1262  0.3324  0.0806  -2.8810   0.0000   0.0000   0.0000   0.3269
   6.240   1.1989   0.02995   0.02417  -0.1261  0.3324  0.0807  -2.8816   0.0000   0.0000   0.0000   0.3268
   6.250   1.1995   0.02999   0.02421  -0.1261  0.3324  0.0809  -2.8821   0.0000   0.0000   0.0000   0.3267
   6.260   1.2001   0.03003   0.02425  -0.1261  0.3324  0.0810  -2.8827   0.0000   0.0000   0.0000   0.3265
   6.270   1.2007   0.03007   0.02429  -0.1260  0.3324  0.0811  -2.8832   0.0000   0.0000   0.0000   0.3264
   6.280   1.2013   0.03011   0.02433  -0.1260  0.3323  0.0812  -2.8838   0.0000   0.0000   0.0000   0.3263
   6.290   1.2019   0.03015   0.02438  -0.1259  0.3323  0.0813  -2.8843   0.0000   0.0000   0.0000   0.3262
   6.300   1.2025   0.03019   0.02442  -0.1259  0.3323  0.0814  -2.8848   0.0000   0.0000   0.0000   0.3261
   6.310   1.2031   0.03023   0.02446  -0.1258  0.3323  0.0816  -2.8853   0.0000   0.0000   0.0000   0.3260
   6.320   1.2037   0.03027   0.02450  -0.1258  0.3323  0.0817  -2.8859   0.0000   0.0000   0.0000   0.3259
   6.330   1.2043   0.03030   0.02454  -0.1258  0.3323  0.0818  -2.8865   0.0000   0.0000   0.0000   0.3257
   6.340   1.2049   0.03034   0.02458  -0.1257  0.3323  0.0819  -2.8870   0.0000   0.0000   0.0000   0.3256
   6.350   1.2056   0.03038   0.02462  -0.1257  0.3323  0.0820  -2.8876   0.0000   0.0000   0.0000   0.3255
   6.360   1.2062   0.03042   0.02466  -0.1256  0.3322  0.0822  -2.8882   0.0000   0.0000   0.0000   0.3254
   6.370   1.2069   0.03045   0.02469  -0.1256  0.3322  0.0823  -2.8888   0.0000   0.0000   0.0000   0.3253
   6.380   1.2075   0.03049   0.02473  -0.1256  0.3322  0.0824  -2.8895   0.0000   0.0000   0.0000   0.3252
   6.390   1.2082   0.03053   0.02477  -0.1255  0.3322  0.0825  -2.8901   0.0000   0.0000   0.0000   0.3250
   6.400   1.2089   0.03056   0.02481  -0.1255  0.3322  0.0827  -2.8907   0.0000   0.0000   0.0000   0.3249
   6.410   1.2096   0.03060   0.02484  -0.1255  0.3322  0.0828  -2.8914   0.0000   0.0000   0.0000   0.3248
   6.420   1.2102   0.03063   0.02488  -0.1254  0.3322  0.0829  -2.8920   0.0000   0.0000   0.0000   0.3247
   6.430   1.2109   0.03067   0.02492  -0.1254  0.3322  0.0830  -2.8927   0.0000   0.0000   0.0000   0.3246
   6.440   1.2116   0.03070   0.02495  -0.1254  0.3321  0.0832  -2.8933   0.0000   0.0000   0.0000   0.3245
   6.450   1.2123   0.03073   0.02499  -0.1253  0.3321  0.0833  -2.8940   0.0000   0.0000   0.0000   0.3244
   6.460   1.2130   0.03077   0.02502  -0.1253  0.3321  0.0834  -2.8947   0.0000   0.0000   0.0000   0.3243
   6.470   1.2137   0.03080   0.02506  -0.1253  0.3321  0.0835  -2.8953   0.0000   0.0000   0.0000   0.3241
   6.480   1.2145   0.03084   0.02509  -0.1252  0.3321  0.0837  -2.8960   0.0000   0.0000   0.0000   0.3240
   6.490   1.2152   0.03087   0.02513  -0.1252  0.3321  0.0838  -2.8967   0.0000   0.0000   0.0000   0.3239
   6.500   1.2159   0.03090   0.02516  -0.1252  0.3321  0.0839  -2.8974   0.0000   0.0000   0.0000   0.3238
   6.510   1.2166   0.03093   0.02519  -0.1251  0.3321  0.0840  -2.8981   0.0000   0.0000   0.0000   0.3237
   6.520   1.2173   0.03097   0.02523  -0.1251  0.3321  0.0841  -2.8988   0.0000   0.0000   0.0000   0.3236
   6.530   1.2181   0.03100   0.02526  -0.1251  0.3320  0.0843  -2.8995   0.0000   0.0000   0.0000   0.3235
   6.540   1.2188   0.03103   0.02530  -0.1250  0.3320  0.0844  -2.9002   0.0000   0.0000   0.0000   0.3233
   6.550   1.2195   0.03107   0.02533  -0.1250  0.3320  0.0845  -2.9009   0.0000   0.0000   0.0000   0.3232
   6.560   1.2202   0.03110   0.02536  -0.1250  0.3320  0.0846  -2.9016   0.0000   0.0000   0.0000   0.3231
   6.570   1.2210   0.03113   0.02540  -0.1250  0.3320  0.0847  -2.9023   0.0000   0.0000   0.0000   0.3230
   6.580   1.2217   0.03116   0.02543  -0.1249  0.3320  0.0848  -2.9030   0.0000   0.0000   0.0000   0.3229
   6.590   1.2225   0.03119   0.02546  -0.1249  0.3320  0.0849  -2.9037   0.0000   0.0000   0.0000   0.3228
   6.600   1.2232   0.03123   0.02550  -0.1249  0.3320  0.0850  -2.9044   0.0000   0.0000   0.0000   0.3227
   6.610   1.2240   0.03126   0.02553  -0.1248  0.3319  0.0851  -2.9052   0.0000   0.0000   0.0000   0.3226
   6.620   1.2247   0.03129   0.02556  -0.1248  0.3319  0.0853  -2.9059   0.0000   0.0000   0.0000   0.3225
   6.630   1.2255   0.03132   0.02559  -0.1248  0.3319  0.0855  -2.9066   0.0000   0.0000   0.0000   0.3223
   6.640   1.2262   0.03135   0.02563  -0.1248  0.3319  0.0857  -2.9073   0.0000   0.0000   0.0000   0.3222
   6.650   1.2270   0.03138   0.02566  -0.1247  0.3319  0.0859  -2.9081   0.0000   0.0000   0.0000   0.3221
   6.660   1.2277   0.03142   0.02569  -0.1247  0.3319  0.0862  -2.9088   0.0000   0.0000   0.0000   0.3220
   6.670   1.2285   0.03145   0.02573  -0.1247  0.3319  0.0864  -2.9095   0.0000   0.0000   0.0000   0.3219
   6.680   1.2292   0.03148   0.02576  -0.1246  0.3318  0.0866  -2.9103   0.0000   0.0000   0.0000   0.3218
   6.690   1.2300   0.03151   0.02579  -0.1246  0.3318  0.0868  -2.9110   0.0000   0.0000   0.0000   0.3217
   6.700   1.2307   0.03154   0.02582  -0.1246  0.3318  0.0870  -2.9117   0.0000   0.0000   0.0000   0.3216
   6.710   1.2315   0.03157   0.02586  -0.1246  0.3318  0.0872  -2.9124   0.0000   0.0000   0.0000   0.3215
   6.720   1.2322   0.03160   0.02589  -0.1245  0.3318  0.0874  -2.9132   0.0000   0.0000   0.0000   0.3213
   6.730   1.2330   0.03164   0.02592  -0.1245  0.3318  0.0876  -2.9139   0.0000   0.0000   0.0000   0.3212
   6.740   1.2337   0.03167   0.02596  -0.1245  0.3318  0.0878  -2.9146   0.0000   0.0000   0.0000   0.3211
   6.750   1.2345   0.03170   0.02599  -0.1244  0.3318  0.0879  -2.9153   0.0000   0.0000   0.0000   0.3210
   6.760   1.2352   0.03173   0.02602  -0.1244  0.3317  0.0881  -2.9161   0.0000   0.0000   0.0000   0.3209
   6.770   1.2360   0.03176   0.02605  -0.1244  0.3317  0.0883  -2.9168   0.0000   0.0000   0.0000   0.3208
   6.780   1.2368   0.03179   0.02609  -0.1244  0.3317  0.0885  -2.9175   0.0000   0.0000   0.0000   0.3207
   6.790   1.2375   0.03183   0.02612  -0.1243  0.3317  0.0886  -2.9182   0.0000   0.0000   0.0000   0.3206
   6.800   1.2383   0.03186   0.02615  -0.1243  0.3317  0.0888  -2.9190   0.0000   0.0000   0.0000   0.3205
   6.810   1.2390   0.03189   0.02619  -0.1243  0.3317  0.0890  -2.9197   0.0000   0.0000   0.0000   0.3204
   6.820   1.2398   0.03192   0.02622  -0.1243  0.3317  0.0892  -2.9204   0.0000   0.0000   0.0000   0.3203
   6.830   1.2405   0.03195   0.02625  -0.1242  0.3317  0.0894  -2.9211   0.0000   0.0000   0.0000   0.3202
   6.840   1.2413   0.03198   0.02629  -0.1242  0.3316  0.0896  -2.9218   0.0000   0.0000   0.0000   0.3200
   6.850   1.2420   0.03202   0.02632  -0.1242  0.3316  0.0898  -2.9226   0.0000   0.0000   0.0000   0.3199
   6.860   1.2428   0.03205   0.02635  -0.1241  0.3316  0.0900  -2.9233   0.0000   0.0000   0.0000   0.3198
   6.870   1.2435   0.03208   0.02639  -0.1241  0.3316  0.0903  -2.9240   0.0000   0.0000   0.0000   0.3197
   6.880   1.2442   0.03211   0.02642  -0.1241  0.3316  0.0905  -2.9247   0.0000   0.0000   0.0000   0.3196
   6.890   1.2450   0.03215   0.02646  -0.1241  0.3316  0.0907  -2.9254   0.0000   0.0000   0.0000   0.3195
   6.900   1.2457   0.03218   0.02649  -0.1240  0.3316  0.0909  -2.9261   0.0000   0.0000   0.0000   0.3194
   6.910   1.2464   0.03221   0.02653  -0.1240  0.3315  0.0912  -2.9267   0.0000   0.0000   0.0000   0.3193
   6.920   1.2471   0.03225   0.02656  -0.1240  0.3315  0.0914  -2.9274   0.0000   0.0000   0.0000   0.3192
   6.930   1.2478   0.03229   0.02660  -0.1239  0.3315  0.0917  -2.9280   0.0000   0.0000   0.0000   0.3191
   6.940   1.2484   0.03233   0.02664  -0.1239  0.3315  0.0919  -2.9285   0.0000   0.0000   0.0000   0.3190
   6.950   1.2490   0.03237   0.02669  -0.1239  0.3315  0.0922  -2.9290   0.0000   0.0000   0.0000   0.3189
   6.960   1.2496   0.03241   0.02673  -0.1238  0.3315  0.0925  -2.9296   0.0000   0.0000   0.0000   0.3188
   6.970   1.2502   0.03245   0.02678  -0.1238  0.3315  0.0928  -2.9300   0.0000   0.0000   0.0000   0.3187
   6.980   1.2508   0.03250   0.02682  -0.1237  0.3314  0.0932  -2.9305   0.0000   0.0000   0.0000   0.3186
   6.990   1.2513   0.03254   0.02687  -0.1237  0.3314  0.0937  -2.9310   0.0000   0.0000   0.0000   0.3184
   7.000   1.2519   0.03258   0.02691  -0.1237  0.3314  0.0942  -2.9314   0.0000   0.0000   0.0000   0.3183
   7.010   1.2525   0.03263   0.02696  -0.1236  0.3314  0.0947  -2.9319   0.0000   0.0000   0.0000   0.3182
   7.020   1.2530   0.03267   0.02700  -0.1236  0.3314  0.0953  -2.9323   0.0000   0.0000   0.0000   0.3181
   7.030   1.2536   0.03272   0.02705  -0.1235  0.3314  0.0960  -2.9327   0.0000   0.0000   0.0000   0.3180
   7.040   1.2541   0.03276   0.02710  -0.1235  0.3314  0.0967  -2.9332   0.0000   0.0000   0.0000   0.3179
   7.050   1.2547   0.03280   0.02714  -0.1235  0.3313  0.0975  -2.9336   0.0000   0.0000   0.0000   0.3178
   7.060   1.2553   0.03284   0.02719  -0.1234  0.3313  0.0984  -2.9341   0.0000   0.0000   0.0000   0.3177
   7.070   1.2559   0.03289   0.02723  -0.1234  0.3313  0.0995  -2.9346   0.0000   0.0000   0.0000   0.3176
   7.080   1.2565   0.03293   0.02728  -0.1233  0.3313  0.1006  -2.9351   0.0000   0.0000   0.0000   0.3175
   7.090   1.2571   0.03297   0.02732  -0.1233  0.3313  0.1019  -2.9356   0.0000   0.0000   0.0000   0.3174
   7.100   1.2577   0.03301   0.02736  -0.1233  0.3313  0.1033  -2.9362   0.0000   0.0000   0.0000   0.3173
   7.110   1.2584   0.03304   0.02740  -0.1232  0.3313  0.1048  -2.9367   0.0000   0.0000   0.0000   0.3172
   7.120   1.2590   0.03308   0.02745  -0.1232  0.3312  0.1066  -2.9373   0.0000   0.0000   0.0000   0.3171
   7.130   1.2597   0.03312   0.02749  -0.1232  0.3312  0.1086  -2.9378   0.0000   0.0000   0.0000   0.3170
   7.140   1.2603   0.03315   0.02753  -0.1231  0.3312  0.1108  -2.9384   0.0000   0.0000   0.0000   0.3169
   7.150   1.2610   0.03319   0.02757  -0.1231  0.3312  0.1135  -2.9390   0.0000   0.0000   0.0000   0.3168
   7.160   1.2617   0.03322   0.02761  -0.1231  0.3312  0.1167  -2.9396   0.0000   0.0000   0.0000   0.3167
   7.170   1.2624   0.03325   0.02765  -0.1231  0.3312  0.1203  -2.9403   0.0000   0.0000   0.0000   0.3166
   7.180   1.2631   0.03329   0.02769  -0.1230  0.3312  0.1248  -2.9409   0.0000   0.0000   0.0000   0.3165
   7.190   1.2638   0.03331   0.02773  -0.1230  0.3311  0.1301  -2.9416   0.0000   0.0000   0.0000   0.3164
   7.200   1.2646   0.03334   0.02777  -0.1230  0.3311  0.1365  -2.9423   0.0000   0.0000   0.0000   0.3163
   7.210   1.2654   0.03337   0.02782  -0.1230  0.3311  0.1440  -2.9430   0.0000   0.0000   0.0000   0.3162
   7.220   1.2661   0.03340   0.02785  -0.1230  0.3311  0.1451  -2.9437   0.0000   0.0000   0.0000   0.3161
   7.230   1.2668   0.03343   0.02789  -0.1229  0.3311  0.1460  -2.9443   0.0000   0.0000   0.0000   0.3160
   7.240   1.2676   0.03347   0.02793  -0.1229  0.3311  0.1468  -2.9450   0.0000   0.0000   0.0000   0.3159
   7.250   1.2683   0.03351   0.02797  -0.1229  0.3310  0.1474  -2.9456   0.0000   0.0000   0.0000   0.3158
   7.260   1.2690   0.03354   0.02801  -0.1229  0.3310  0.1480  -2.9463   0.0000   0.0000   0.0000   0.3157
   7.270   1.2697   0.03358   0.02798  -0.1228  0.3310  0.1485  -2.9470   0.0000   0.0000   0.0000   0.3156
   7.280   1.2705   0.03361   0.02808  -0.1228  0.3310  0.1491  -2.9476   0.0000   0.0000   0.0000   0.3155
   7.290   1.2712   0.03365   0.02812  -0.1228  0.3310  0.1496  -2.9483   0.0000   0.0000   0.0000   0.3154
   7.300   1.2719   0.03368   0.02816  -0.1228  0.3310  0.1501  -2.9490   0.0000   0.0000   0.0000   0.3153
   7.310   1.2727   0.03372   0.02819  -0.1227  0.3310  0.1507  -2.9496   0.0000   0.0000   0.0000   0.3152
   7.320   1.2734   0.03375   0.02823  -0.1227  0.3309  0.1512  -2.9503   0.0000   0.0000   0.0000   0.3151
   7.330   1.2741   0.03379   0.02827  -0.1227  0.3309  0.1518  -2.9510   0.0000   0.0000   0.0000   0.3150
   7.340   1.2749   0.03382   0.02830  -0.1227  0.3309  0.1524  -2.9516   0.0000   0.0000   0.0000   0.3149
   7.350   1.2756   0.03385   0.02834  -0.1226  0.3309  0.1528  -2.9523   0.0000   0.0000   0.0000   0.3148
   7.360   1.2763   0.03389   0.02838  -0.1226  0.3309  0.1530  -2.9530   0.0000   0.0000   0.0000   0.3147
[...]
  10.160   1.4476   0.04741   0.04258  -0.1167  0.3219  0.3238  -3.0831   0.0000   0.0000   0.0000   0.2919
  10.170   1.4481   0.04746   0.04263  -0.1167  0.3219  0.3238  -3.0834   0.0000   0.0000   0.0000   0.2919
  10.180   1.4486   0.04752   0.04269  -0.1167  0.3218  0.3238  -3.0837   0.0000   0.0000   0.0000   0.2918
  10.190   1.4491   0.04757   0.04274  -0.1166  0.3217  0.3239  -3.0840   0.0000   0.0000   0.0000   0.2917
  10.200   1.4497   0.04763   0.04280  -0.1166  0.3217  0.3239  -3.0843   0.0000   0.0000   0.0000   0.2916
  10.210   1.4502   0.04768   0.04286  -0.1166  0.3216  0.3239  -3.0846   0.0000   0.0000   0.0000   0.2916
  10.220   1.4507   0.04774   0.04291  -0.1166  0.3215  0.3239  -3.0849   0.0000   0.0000   0.0000   0.2915
  10.230   1.4513   0.04780   0.04297  -0.1166  0.3214  0.3239  -3.0852   0.0000   0.0000   0.0000   0.2914
  10.240   1.4518   0.04785   0.04302  -0.1165  0.3214  0.3239  -3.0854   0.0000   0.0000   0.0000   0.2913
  10.250   1.4523   0.04791   0.04308  -0.1165  0.3213  0.3239  -3.0857   0.0000   0.0000   0.0000   0.2913
  10.260   1.4528   0.04796   0.04314  -0.1165  0.3212  0.3239  -3.0860   0.0000   0.0000   0.0000   0.2912
  10.270   1.4534   0.04801   0.04319  -0.1165  0.3212  0.3240  -3.0864   0.0000   0.0000   0.0000   0.2911
  10.280   1.4539   0.04807   0.04325  -0.1164  0.3211  0.3240  -3.0867   0.0000   0.0000   0.0000   0.2911
  10.290   1.4545   0.04812   0.04330  -0.1164  0.3210  0.3240  -3.0870   0.0000   0.0000   0.0000   0.2910
  10.300   1.4550   0.04818   0.04336  -0.1164  0.3210  0.3240  -3.0873   0.0000   0.0000   0.0000   0.2909
  10.310   1.4556   0.04823   0.04341  -0.1164  0.3209  0.3240  -3.0876   0.0000   0.0000   0.0000   0.2908
  10.320   1.4561   0.04829   0.04347  -0.1164  0.3208  0.3240  -3.0879   0.0000   0.0000   0.0000   0.2908
  10.330   1.4567   0.04834   0.04352  -0.1163  0.3208  0.3240  -3.0883   0.0000   0.0000   0.0000   0.2907
  10.340   1.4572   0.04839   0.04358  -0.1163  0.3207  0.3240  -3.0886   0.0000   0.0000   0.0000   0.2906
  10.350   1.4578   0.04845   0.04363  -0.1163  0.3207  0.3241  -3.0889   0.0000   0.0000   0.0000   0.2906
  10.360   1.4583   0.04850   0.04369  -0.1163  0.3206  0.3241  -3.0892   0.0000   0.0000   0.0000   0.2905
  10.370   1.4589   0.04856   0.04374  -0.1162  0.3205  0.3241  -3.0896   0.0000   0.0000   0.0000   0.2904
  10.380   1.4594   0.04861   0.04380  -0.1162  0.3205  0.3241  -3.0899   0.0000   0.0000   0.0000   0.2904
  10.390   1.4600   0.04866   0.04385  -0.1162  0.3204  0.3241  -3.0903   0.0000   0.0000   0.0000   0.2903
  10.400   1.4605   0.04872   0.04391  -0.1162  0.3204  0.3241  -3.0907   0.0000   0.0000   0.0000   0.2902
  10.410   1.4611   0.04877   0.04396  -0.1162  0.3203  0.3241  -3.0910   0.0000   0.0000   0.0000   0.2901
  10.420   1.4617   0.04882   0.04402  -0.1161  0.3203  0.3241  -3.0914   0.0000   0.0000   0.0000   0.2901
  10.430   1.4622   0.04888   0.04407  -0.1161  0.3202  0.3242  -3.0918   0.0000   0.0000   0.0000   0.2900
  10.440   1.4628   0.04893   0.04413  -0.1161  0.3202  0.3242  -3.0922   0.0000   0.0000   0.0000   0.2899
  10.450   1.4633   0.04899   0.04418  -0.1161  0.3202  0.3242  -3.0925   0.0000   0.0000   0.0000   0.2899
  10.460   1.4638   0.04905   0.04424  -0.1161  0.3201  0.3242  -3.0928   0.0000   0.0000   0.0000   0.2898
  10.470   1.4643   0.04911   0.04431  -0.1160  0.3201  0.3242  -3.0930   0.0000   0.0000   0.0000   0.2897
  10.480   1.4647   0.04917   0.04437  -0.1160  0.3200  0.3242  -3.0931   0.0000   0.0000   0.0000   0.2897
  10.490   1.4650   0.04924   0.04444  -0.1160  0.3200  0.3242  -3.0931   0.0000   0.0000   0.0000   0.2896
  10.500   1.4653   0.04932   0.04452  -0.1159  0.3199  0.3242  -3.0930   0.0000   0.0000   0.0000   0.2895
  10.510   1.4655   0.04940   0.04460  -0.1159  0.3199  0.3242  -3.0929   0.0000   0.0000   0.0000   0.2894
  10.520   1.4657   0.04948   0.04468  -0.1158  0.3198  0.3243  -3.0927   0.0000   0.0000   0.0000   0.2894
  10.530   1.4659   0.04956   0.04476  -0.1158  0.3198  0.3243  -3.0925   0.0000   0.0000   0.0000   0.2893
  10.540   1.4660   0.04964   0.04485  -0.1158  0.3197  0.3243  -3.0922   0.0000   0.0000   0.0000   0.2892
  10.550   1.4662   0.04972   0.04493  -0.1157  0.3196  0.3243  -3.0919   0.0000   0.0000   0.0000   0.2892
  10.560   1.4663   0.04981   0.04502  -0.1157  0.3196  0.3243  -3.0916   0.0000   0.0000   0.0000   0.2891
  10.570   1.4665   0.04989   0.04510  -0.1156  0.3195  0.3243  -3.0914   0.0000   0.0000   0.0000   0.2890
  10.580   1.4667   0.04997   0.04518  -0.1156  0.3194  0.3243  -3.0912   0.0000   0.0000   0.0000   0.2890
  10.590   1.4669   0.05005   0.04526  -0.1155  0.3193  0.3243  -3.0910   0.0000   0.0000   0.0000   0.2889
  10.600   1.4671   0.05013   0.04534  -0.1155  0.3192  0.3243  -3.0909   0.0000   0.0000   0.0000   0.2888
  10.610   1.4673   0.05020   0.04542  -0.1155  0.3191  0.3243  -3.0907   0.0000   0.0000   0.0000   0.2888
  10.620   1.4676   0.05028   0.04550  -0.1154  0.3190  0.3244  -3.0906   0.0000   0.0000   0.0000   0.2887
  10.630   1.4678   0.05036   0.04558  -0.1154  0.3189  0.3244  -3.0905   0.0000   0.0000   0.0000   0.2886
  10.640   1.4680   0.05044   0.04566  -0.1154  0.3188  0.3244  -3.0903   0.0000   0.0000   0.0000   0.2886
  10.650   1.4682   0.05051   0.04573  -0.1153  0.3186  0.3244  -3.0902   0.0000   0.0000   0.0000   0.2885
  10.660   1.4684   0.05059   0.04581  -0.1153  0.3185  0.3244  -3.0900   0.0000   0.0000   0.0000   0.2884
  10.670   1.4686   0.05067   0.04589  -0.1152  0.3184  0.3244  -3.0898   0.0000   0.0000   0.0000   0.2884
  10.680   1.4688   0.05075   0.04597  -0.1152  0.3182  0.3244  -3.0896   0.0000   0.0000   0.0000   0.2883
  10.690   1.4690   0.05083   0.04605  -0.1151  0.3181  0.3244  -3.0894   0.0000   0.0000   0.0000   0.2882
  10.700   1.4691   0.05091   0.04613  -0.1151  0.3179  0.3244  -3.0892   0.0000   0.0000   0.0000   0.2882
  10.710   1.4692   0.05099   0.04622  -0.1150  0.3177  0.3245  -3.0889   0.0000   0.0000   0.0000   0.2881
  10.720   1.4693   0.05108   0.04630  -0.1150  0.3175  0.3245  -3.0886   0.0000   0.0000   0.0000   0.2880
  10.730   1.4694   0.05116   0.04639  -0.1149  0.3173  0.3245  -3.0882   0.0000   0.0000   0.0000   0.2880
  10.740   1.4694   0.05125   0.04648  -0.1149  0.3171  0.3245  -3.0878   0.0000   0.0000   0.0000   0.2879
  10.750   1.4694   0.05134   0.04657  -0.1148  0.3169  0.3245  -3.0874   0.0000   0.0000   0.0000   0.2878
  10.760   1.4694   0.05144   0.04666  -0.1148  0.3167  0.3245  -3.0870   0.0000   0.0000   0.0000   0.2877
  10.770   1.4694   0.05153   0.04676  -0.1147  0.3165  0.3245  -3.0864   0.0000   0.0000   0.0000   0.2877
  10.780   1.4693   0.05163   0.04686  -0.1147  0.3163  0.3245  -3.0858   0.0000   0.0000   0.0000   0.2876
  10.790   1.4692   0.05173   0.04696  -0.1146  0.3160  0.3245  -3.0852   0.0000   0.0000   0.0000   0.2875
  10.800   1.4689   0.05184   0.04707  -0.1145  0.3158  0.3245  -3.0844   0.0000   0.0000   0.0000   0.2875
  10.810   1.4686   0.05196   0.04718  -0.1145  0.3155  0.3245  -3.0834   0.0000   0.0000   0.0000   0.2874
  10.820   1.4682   0.05207   0.04730  -0.1144  0.3152  0.3246  -3.0824   0.0000   0.0000   0.0000   0.2874
  10.830   1.4678   0.05220   0.04743  -0.1143  0.3150  0.3246  -3.0812   0.0000   0.0000   0.0000   0.2873
  10.840   1.4672   0.05233   0.04756  -0.1142  0.3147  0.3246  -3.0799   0.0000   0.0000   0.0000   0.2872
  10.850   1.4665   0.05247   0.04769  -0.1141  0.3144  0.3246  -3.0785   0.0000   0.0000   0.0000   0.2872
  10.860   1.4664   0.05257   0.04779  -0.1141  0.3141  0.3246  -3.0778   0.0000   0.0000   0.0000   0.2871
  10.870   1.4664   0.05267   0.04789  -0.1140  0.3138  0.3246  -3.0773   0.0000   0.0000   0.0000   0.2870
  10.880   1.4663   0.05276   0.04799  -0.1140  0.3136  0.3246  -3.0768   0.0000   0.0000   0.0000   0.2870
  10.890   1.4662   0.05287   0.04809  -0.1139  0.3133  0.3246  -3.0761   0.0000   0.0000   0.0000   0.2869
  10.900   1.4658   0.05299   0.04821  -0.1138  0.3129  0.3246  -3.0750   0.0000   0.0000   0.0000   0.2868
  10.910   1.4650   0.05314   0.04836  -0.1137  0.3125  0.3246  -3.0733   0.0000   0.0000   0.0000   0.2868
  10.920   1.4635   0.05334   0.04856  -0.1136  0.3120  0.3246  -3.0706   0.0000   0.0000   0.0000   0.2867
  10.930   1.4616   0.05357   0.04880  -0.1134  0.3114  0.3246  -3.0672   0.0000   0.0000   0.0000   0.2867
  10.940   1.4597   0.05380   0.04903  -0.1133  0.3108  0.3246  -3.0638   0.0000   0.0000   0.0000   0.2866
  10.950   1.4581   0.05402   0.04924  -0.1131  0.3102  0.3246  -3.0608   0.0000   0.0000   0.0000   0.2865
  10.960   1.4566   0.05422   0.04944  -0.1130  0.3096  0.3246  -3.0581   0.0000   0.0000   0.0000   0.2865
  10.970   1.4552   0.05441   0.04964  -0.1129  0.3089  0.3247  -3.0554   0.0000   0.0000   0.0000   0.2864
  10.980   1.4537   0.05461   0.04984  -0.1127  0.3083  0.3247  -3.0528   0.0000   0.0000   0.0000   0.2864
  10.990   1.4521   0.05482   0.05004  -0.1126  0.3076  0.3247  -3.0500   0.0000   0.0000   0.0000   0.2863
  11.000   1.4505   0.05503   0.05025  -0.1124  0.3070  0.3247  -3.0471   0.0000   0.0000   0.0000   0.2863
  11.010   1.4487   0.05525   0.05047  -0.1123  0.3063  0.3247  -3.0439   0.0000   0.0000   0.0000   0.2862
  11.020   1.4466   0.05549   0.05071  -0.1121  0.3056  0.3247  -3.0404   0.0000   0.0000   0.0000   0.2862
  11.030   1.4442   0.05576   0.05097  -0.1119  0.3049  0.3247  -3.0364   0.0000   0.0000   0.0000   0.2861
  11.040   1.4425   0.05597   0.05118  -0.1118  0.3042  0.3247  -3.0334   0.0000   0.0000   0.0000   0.2860
  11.050   1.4414   0.05615   0.05136  -0.1117  0.3036  0.3247  -3.0315   0.0000   0.0000   0.0000   0.2860
  11.060   1.4402   0.05632   0.05154  -0.1115  0.3030  0.3247  -3.0296   0.0000   0.0000   0.0000   0.2859
  11.070   1.4390   0.05651   0.05172  -0.1114  0.3024  0.3247  -3.0276   0.0000   0.0000   0.0000   0.2859
  11.080   1.4379   0.05668   0.05189  -0.1113  0.3018  0.3247  -3.0258   0.0000   0.0000   0.0000   0.2858
  11.090   1.4374   0.05682   0.05203  -0.1112  0.3015  0.3247  -3.0247   0.0000   0.0000   0.0000   0.2858
  11.100   1.4365   0.05698   0.05219  -0.1111  0.3011  0.3247  -3.0231   0.0000   0.0000   0.0000   0.2857
  11.110   1.4338   0.05728   0.05249  -0.1109  0.3003  0.3247  -3.0188   0.0000   0.0000   0.0000   0.2857
  11.120   1.4270   0.05788   0.05309  -0.1105  0.2988  0.3247  -3.0092   0.0000   0.0000   0.0000   0.2857
  11.130   1.4234   0.05823   0.05344  -0.1103  0.2978  0.3247  -3.0044   0.0000   0.0000   0.0000   0.2856
  11.140   1.4208   0.05853   0.05373  -0.1101  0.2970  0.3247  -3.0008   0.0000   0.0000   0.0000   0.2856
  11.150   1.4184   0.05879   0.05400  -0.1099  0.2964  0.3247  -2.9977   0.0000   0.0000   0.0000   0.2855
  11.160   1.4164   0.05903   0.05424  -0.1098  0.2958  0.3247  -2.9952   0.0000   0.0000   0.0000   0.2855
  11.170   1.4149   0.05924   0.05445  -0.1096  0.2953  0.3247  -2.9931   0.0000   0.0000   0.0000   0.2854
  11.180   1.4136   0.05943   0.05464  -0.1095  0.2949  0.3247  -2.9914   0.0000   0.0000   0.0000   0.2854
  11.190   1.4133   0.05955   0.05476  -0.1094  0.2947  0.3247  -2.9904   0.0000   0.0000   0.0000   0.2853
  11.200   1.4132   0.05966   0.05486  -0.1094  0.2945  0.3247  -2.9895   0.0000   0.0000   0.0000   0.2853
  11.210   1.4131   0.05976   0.05497  -0.1093  0.2943  0.3247  -2.9887   0.0000   0.0000   0.0000   0.2852
  11.220   1.4130   0.05987   0.05507  -0.1093  0.2941  0.3247  -2.9879   0.0000   0.0000   0.0000   0.2851
  11.230   1.4129   0.05997   0.05518  -0.1092  0.2939  0.3247  -2.9870   0.0000   0.0000   0.0000   0.2851
  11.240   1.4127   0.06008   0.05529  -0.1092  0.2937  0.3248  -2.9860   0.0000   0.0000   0.0000   0.2850
  11.250   1.4125   0.06019   0.05540  -0.1091  0.2934  0.3248  -2.9849   0.0000   0.0000   0.0000   0.2850
  11.260   1.4122   0.06031   0.05552  -0.1091  0.2932  0.3248  -2.9835   0.0000   0.0000   0.0000   0.2849
  11.270   1.4117   0.06045   0.05566  -0.1090  0.2928  0.3248  -2.9817   0.0000   0.0000   0.0000   0.2848
  11.280   1.4110   0.06060   0.05581  -0.1089  0.2924  0.3248  -2.9794   0.0000   0.0000   0.0000   0.2848
  11.290   1.4102   0.06075   0.05596  -0.1088  0.2920  0.3248  -2.9770   0.0000   0.0000   0.0000   0.2847
  11.300   1.4095   0.06090   0.05611  -0.1088  0.2917  0.3248  -2.9745   0.0000   0.0000   0.0000   0.2847
  11.310   1.4088   0.06105   0.05626  -0.1087  0.2913  0.3248  -2.9719   0.0000   0.0000   0.0000   0.2846
  11.320   1.4075   0.06125   0.05646  -0.1086  0.2909  0.3248  -2.9688   0.0000   0.0000   0.0000   0.2846
  11.330   1.4054   0.06151   0.05672  -0.1084  0.2904  0.3248  -2.9652   0.0000   0.0000   0.0000   0.2845
  11.340   1.4031   0.06179   0.05700  -0.1083  0.2900  0.3248  -2.9613   0.0000   0.0000   0.0000   0.2845
  11.350   1.4014   0.06202   0.05724  -0.1081  0.2896  0.3248  -2.9582   0.0000   0.0000   0.0000   0.2845
  11.360   1.4001   0.06221   0.05743  -0.1080  0.2892  0.3248  -2.9560   0.0000   0.0000   0.0000   0.2844
  11.370   1.3992   0.06238   0.05760  -0.1079  0.2890  0.3248  -2.9543   0.0000   0.0000   0.0000   0.2844
  11.380   1.3984   0.06254   0.05776  -0.1078  0.2887  0.3248  -2.9527   0.0000   0.0000   0.0000   0.2843
  11.390   1.3977   0.06270   0.05792  -0.1078  0.2884  0.3248  -2.9512   0.0000   0.0000   0.0000   0.2843
  11.400   1.3970   0.06285   0.05807  -0.1077  0.2881  0.3248  -2.9499   0.0000   0.0000   0.0000   0.2842
  11.410   1.3964   0.06299   0.05821  -0.1076  0.2879  0.3249  -2.9488   0.0000   0.0000   0.0000   0.2842
  11.420   1.3959   0.06314   0.05836  -0.1076  0.2876  0.3249  -2.9477   0.0000   0.0000   0.0000   0.2841
  11.430   1.3953   0.06328   0.05850  -0.1075  0.2873  0.3249  -2.9465   0.0000   0.0000   0.0000   0.2841
  11.440   1.3947   0.06343   0.05865  -0.1074  0.2871  0.3249  -2.9454   0.0000   0.0000   0.0000   0.2840
  11.450   1.3941   0.06357   0.05879  -0.1073  0.2868  0.3249  -2.9443   0.0000   0.0000   0.0000   0.2840
  11.460   1.3935   0.06372   0.05894  -0.1073  0.2866  0.3249  -2.9431   0.0000   0.0000   0.0000   0.2839
  11.470   1.3928   0.06387   0.05910  -0.1072  0.2863  0.3249  -2.9419   0.0000   0.0000   0.0000   0.2839
  11.480   1.3921   0.06403   0.05925  -0.1071  0.2860  0.3249  -2.9406   0.0000   0.0000   0.0000   0.2838
  11.490   1.3913   0.06419   0.05941  -0.1070  0.2857  0.3249  -2.9393   0.0000   0.0000   0.0000   0.2838
  11.500   1.3904   0.06436   0.05958  -0.1069  0.2855  0.3249  -2.9378   0.0000   0.0000   0.0000   0.2837
  11.510   1.3894   0.06453   0.05975  -0.1069  0.2852  0.3249  -2.9363   0.0000   0.0000   0.0000   0.2837
  11.520   1.3892   0.06465   0.05987  -0.1068  0.2850  0.3249  -2.9354   0.0000   0.0000   0.0000   0.2836
  11.530   1.3891   0.06476   0.05998  -0.1068  0.2848  0.3249  -2.9345   0.0000   0.0000   0.0000   0.2836
  11.540   1.3889   0.06487   0.06010  -0.1067  0.2846  0.3249  -2.9335   0.0000   0.0000   0.0000   0.2835
  11.550   1.3887   0.06499   0.06022  -0.1067  0.2844  0.3250  -2.9325   0.0000   0.0000   0.0000   0.2834
  11.560   1.3884   0.06512   0.06034  -0.1066  0.2842  0.3250  -2.9312   0.0000   0.0000   0.0000   0.2834
  11.570   1.3879   0.06525   0.06048  -0.1065  0.2839  0.3250  -2.9298   0.0000   0.0000   0.0000   0.2833
  11.580   1.3873   0.06540   0.06062  -0.1065  0.2836  0.3250  -2.9279   0.0000   0.0000   0.0000   0.2833
  11.590   1.3864   0.06557   0.06080  -0.1064  0.2832  0.3250  -2.9254   0.0000   0.0000   0.0000   0.2832
  11.600   1.3841   0.06586   0.06108  -0.1062  0.2827  0.3250  -2.9202   0.0000   0.0000   0.0000   0.2832
  11.610   1.3802   0.06627   0.06150  -0.1060  0.2820  0.3250  -2.9117   0.0000   0.0000   0.0000   0.2832
  11.620   1.3773   0.06660   0.06183  -0.1058  0.2814  0.3250  -2.9048   0.0000   0.0000   0.0000   0.2832
  11.630   1.3755   0.06685   0.06208  -0.1057  0.2809  0.3250  -2.8998   0.0000   0.0000   0.0000   0.2832
  11.640   1.3742   0.06705   0.06228  -0.1056  0.2805  0.3250  -2.8958   0.0000   0.0000   0.0000   0.2831
  11.650   1.3733   0.06722   0.06246  -0.1055  0.2802  0.3250  -2.8924   0.0000   0.0000   0.0000   0.2831
  11.660   1.3725   0.06739   0.06263  -0.1055  0.2799  0.3250  -2.8909   0.0000   0.0000   0.0000   0.2830
  11.670   1.3718   0.06755   0.06279  -0.1054  0.2796  0.3250  -2.8895   0.0000   0.0000   0.0000   0.2830
  11.680   1.3712   0.06770   0.06294  -0.1053  0.2793  0.3250  -2.8882   0.0000   0.0000   0.0000   0.2829
  11.690   1.3707   0.06784   0.06308  -0.1053  0.2791  0.3250  -2.8871   0.0000   0.0000   0.0000   0.2829
  11.700   1.3702   0.06798   0.06322  -0.1052  0.2788  0.3250  -2.8861   0.0000   0.0000   0.0000   0.2828
  11.710   1.3697   0.06812   0.06336  -0.1051  0.2786  0.3250  -2.8851   0.0000   0.0000   0.0000   0.2828
  11.720   1.3693   0.06825   0.06349  -0.1051  0.2784  0.3250  -2.8841   0.0000   0.0000   0.0000   0.2827
  11.730   1.3689   0.06838   0.06363  -0.1050  0.2781  0.3250  -2.8831   0.0000   0.0000   0.0000   0.2827
  11.740   1.3685   0.06852   0.06376  -0.1050  0.2779  0.3251  -2.8822   0.0000   0.0000   0.0000   0.2826
  11.750   1.3682   0.06865   0.06389  -0.1049  0.2777  0.3251  -2.8814   0.0000   0.0000   0.0000   0.2826
  11.760   1.3679   0.06877   0.06402  -0.1049  0.2775  0.3251  -2.8805   0.0000   0.0000   0.0000   0.2825
  11.770   1.3676   0.06890   0.06414  -0.1048  0.2774  0.3251  -2.8797   0.0000   0.0000   0.0000   0.2825
  11.780   1.3673   0.06902   0.06427  -0.1048  0.2772  0.3251  -2.8790   0.0000   0.0000   0.0000   0.2824
  11.790   1.3671   0.06914   0.06439  -0.1047  0.2771  0.3251  -2.8783   0.0000   0.0000   0.0000   0.2824
  11.800   1.3668   0.06926   0.06451  -0.1047  0.2769  0.3251  -2.8775   0.0000   0.0000   0.0000   0.2823
  11.810   1.3665   0.06939   0.06464  -0.1046  0.2767  0.3251  -2.8767   0.0000   0.0000   0.0000   0.2823
  11.820   1.3662   0.06952   0.06477  -0.1046  0.2766  0.3251  -2.8758   0.0000   0.0000   0.0000   0.2822
  11.830   1.3657   0.06966   0.06491  -0.1045  0.2764  0.3251  -2.8748   0.0000   0.0000   0.0000   0.2822
  11.840   1.3652   0.06980   0.06505  -0.1045  0.2762  0.3251  -2.8737   0.0000   0.0000   0.0000   0.2821
  11.850   1.3645   0.06996   0.06521  -0.1044  0.2760  0.3251  -2.8723   0.0000   0.0000   0.0000   0.2821
  11.860   1.3637   0.07013   0.06538  -0.1043  0.2757  0.3251  -2.8708   0.0000   0.0000   0.0000   0.2821
  11.870   1.3625   0.07033   0.06558  -0.1042  0.2755  0.3251  -2.8687   0.0000   0.0000   0.0000   0.2820
  11.880   1.3608   0.07057   0.06582  -0.1041  0.2752  0.3252  -2.8656   0.0000   0.0000   0.0000   0.2820
  11.890   1.3592   0.07080   0.06606  -0.1040  0.2750  0.3252  -2.8621   0.0000   0.0000   0.0000   0.2820
  11.900   1.3575   0.07105   0.06630  -0.1039  0.2747  0.3252  -2.8584   0.0000   0.0000   0.0000   0.2819
  11.910   1.3565   0.07123   0.06649  -0.1038  0.2745  0.3252  -2.8560   0.0000   0.0000   0.0000   0.2819
  11.920   1.3558   0.07139   0.06665  -0.1038  0.2743  0.3252  -2.8540   0.0000   0.0000   0.0000   0.2819
  11.930   1.3553   0.07154   0.06680  -0.1037  0.2741  0.3252  -2.8524   0.0000   0.0000   0.0000   0.2818
  11.940   1.3549   0.07168   0.06694  -0.1037  0.2740  0.3252  -2.8509   0.0000   0.0000   0.0000   0.2818
  11.950   1.3546   0.07181   0.06708  -0.1036  0.2738  0.3252  -2.8494   0.0000   0.0000   0.0000   0.2817
  11.960   1.3543   0.07194   0.06721  -0.1036  0.2736  0.3252  -2.8481   0.0000   0.0000   0.0000   0.2817
  11.970   1.3540   0.07207   0.06733  -0.1035  0.2735  0.3252  -2.8468   0.0000   0.0000   0.0000   0.2816
  11.980   1.3538   0.07219   0.06746  -0.1035  0.2733  0.3252  -2.8455   0.0000   0.0000   0.0000   0.2816
  11.990   1.3535   0.07232   0.06759  -0.1034  0.2731  0.3252  -2.8442   0.0000   0.0000   0.0000   0.2815
  12.000   1.3533   0.07244   0.06771  -0.1034  0.2730  0.3252  -2.8428   0.0000   0.0000   0.0000   0.2815


