xflr5 v6.61

 Calculated polar for: Airfoil-RevE-HC

 1 1 Reynolds number fixed          Mach number fixed         

 xtrf =   1.000 (top)        1.000 (bottom)
 Mach =   0.370     Re =     3.100 e 6     Ncrit =   0.500

  alpha     CL        CD       CDp       Cm    Top Xtr Bot Xtr   Cpmin    Chinge    XCp    
 ------- -------- --------- --------- -------- ------- ------- -------- --------- ---------
 -12.000   0.0316   0.03718   0.03158  -0.2296  0.3631  0.0145  -5.7843   0.0000   0.0000   0.0000   8.7258
 -11.990   0.0311   0.03709   0.03149  -0.2296  0.3630  0.0145  -5.7842   0.0000   0.0000   0.0000   8.8627
 -11.980   0.0305   0.03700   0.03140  -0.2295  0.3630  0.0145  -5.7842   0.0000   0.0000   0.0000   9.0151
 -11.970   0.0299   0.03690   0.03130  -0.2295  0.3630  0.0145  -5.7845   0.0000   0.0000   0.0000   9.1869
 -11.960   0.0293   0.03680   0.03120  -0.2295  0.3630  0.0145  -5.7850   0.0000   0.0000   0.0000   9.3785
 -11.950   0.0286   0.03670   0.03110  -0.2294  0.3630  0.0145  -5.7857   0.0000   0.0000   0.0000   9.5963
 -11.940   0.0278   0.03660   0.03100  -0.2294  0.3630  0.0145  -5.7867   0.0000   0.0000   0.0000   9.8431
 -11.930   0.0271   0.03650   0.03089  -0.2294  0.3630  0.0145  -5.7878   0.0000   0.0000   0.0000  10.1108
 -11.920   0.0263   0.03639   0.03079  -0.2293  0.3630  0.0145  -5.7889   0.0000   0.0000   0.0000  10.3916
 -11.910   0.0256   0.03629   0.03068  -0.2293  0.3630  0.0145  -5.7899   0.0000   0.0000   0.0000  10.6865
 -11.900   0.0249   0.03619   0.03059  -0.2292  0.3630  0.0145  -5.7906   0.0000   0.0000   0.0000  10.9743
 -11.890   0.0243   0.03610   0.03049  -0.2292  0.3629  0.0146  -5.7908   0.0000   0.0000   0.0000  11.2368
 -11.880   0.0238   0.03602   0.03041  -0.2292  0.3629  0.0146  -5.7905   0.0000   0.0000   0.0000  11.4650
 -11.870   0.0234   0.03594   0.03033  -0.2291  0.3629  0.0146  -5.7898   0.0000   0.0000   0.0000  11.6626
 -11.860   0.0230   0.03586   0.03025  -0.2291  0.3629  0.0146  -5.7890   0.0000   0.0000   0.0000  11.8589
 -11.850   0.0226   0.03578   0.03017  -0.2290  0.3629  0.0146  -5.7882   0.0000   0.0000   0.0000  12.0638
 -11.840   0.0221   0.03570   0.03009  -0.2290  0.3629  0.0146  -5.7874   0.0000   0.0000   0.0000  12.2791
 -11.830   0.0217   0.03563   0.03001  -0.2289  0.3629  0.0146  -5.7866   0.0000   0.0000   0.0000  12.5048
 -11.820   0.0213   0.03555   0.02994  -0.2289  0.3629  0.0146  -5.7859   0.0000   0.0000   0.0000  12.7485
 -11.810   0.0209   0.03547   0.02986  -0.2288  0.3629  0.0146  -5.7852   0.0000   0.0000   0.0000  13.0078
 -11.800   0.0204   0.03539   0.02978  -0.2288  0.3629  0.0146  -5.7845   0.0000   0.0000   0.0000  13.2819
 -11.790   0.0200   0.03532   0.02970  -0.2287  0.3628  0.0146  -5.7839   0.0000   0.0000   0.0000  13.5726
 -11.780   0.0195   0.03524   0.02962  -0.2287  0.3628  0.0146  -5.7833   0.0000   0.0000   0.0000  13.8823
 -11.770   0.0190   0.03516   0.02954  -0.2286  0.3628  0.0146  -5.7827   0.0000   0.0000   0.0000  14.2137
 -11.760   0.0185   0.03508   0.02947  -0.2286  0.3628  0.0146  -5.7822   0.0000   0.0000   0.0000  14.5693
 -11.750   0.0181   0.03500   0.02939  -0.2285  0.3628  0.0146  -5.7817   0.0000   0.0000   0.0000  14.9524
 -11.740   0.0176   0.03492   0.02931  -0.2285  0.3628  0.0146  -5.7813   0.0000   0.0000   0.0000  15.3692
 -11.730   0.0170   0.03484   0.02922  -0.2284  0.3628  0.0146  -5.7809   0.0000   0.0000   0.0000  15.8259
 -11.720   0.0165   0.03476   0.02914  -0.2283  0.3628  0.0146  -5.7807   0.0000   0.0000   0.0000  16.3305
 -11.710   0.0159   0.03468   0.02906  -0.2283  0.3628  0.0146  -5.7805   0.0000   0.0000   0.0000  16.8929
 -11.700   0.0153   0.03459   0.02897  -0.2282  0.3628  0.0146  -5.7805   0.0000   0.0000   0.0000  17.5215
 -11.690   0.0147   0.03451   0.02889  -0.2282  0.3627  0.0146  -5.7806   0.0000   0.0000   0.0000  18.2426
 -11.680   0.0141   0.03442   0.02880  -0.2281  0.3627  0.0146  -5.7809   0.0000   0.0000   0.0000  19.0752
 -11.670   0.0134   0.03433   0.02871  -0.2281  0.3627  0.0146  -5.7813   0.0000   0.0000   0.0000  20.0508
 -11.660   0.0126   0.03424   0.02861  -0.2280  0.3627  0.0146  -5.7820   0.0000   0.0000   0.0000  21.2120
 -11.650   0.0118   0.03414   0.02852  -0.2279  0.3627  0.0146  -5.7830   0.0000   0.0000   0.0000  22.6158
 -11.640   0.0110   0.03404   0.02842  -0.2279  0.3627  0.0146  -5.7841   0.0000   0.0000   0.0000  24.3235
 -11.630   0.0102   0.03395   0.02832  -0.2278  0.3627  0.0146  -5.7852   0.0000   0.0000   0.0000  26.2549
 -11.620   0.0093   0.03385   0.02822  -0.2278  0.3627  0.0146  -5.7862   0.0000   0.0000   0.0000  28.5370
 -11.610   0.0086   0.03376   0.02813  -0.2277  0.3627  0.0146  -5.7871   0.0000   0.0000   0.0000  31.1343
 -11.600   0.0078   0.03367   0.02804  -0.2277  0.3627  0.0146  -5.7876   0.0000   0.0000   0.0000  33.9503
 -11.590   0.0072   0.03359   0.02796  -0.2276  0.3627  0.0146  -5.7876   0.0000   0.0000   0.0000  36.8697
 -11.580   0.0067   0.03351   0.02788  -0.2275  0.3626  0.0146  -5.7872   0.0000   0.0000   0.0000  39.8307
 -11.570   0.0062   0.03343   0.02780  -0.2275  0.3626  0.0146  -5.7865   0.0000   0.0000   0.0000  42.8915
 -11.560   0.0057   0.03336   0.02773  -0.2274  0.3626  0.0146  -5.7858   0.0000   0.0000   0.0000  46.4750
 -11.550   0.0052   0.03329   0.02765  -0.2273  0.3626  0.0146  -5.7851   0.0000   0.0000   0.0000  50.7500
 -11.540   0.0047   0.03321   0.02758  -0.2273  0.3626  0.0146  -5.7845   0.0000   0.0000   0.0000  55.9489
 -11.530   0.0042   0.03314   0.02751  -0.2272  0.3626  0.0146  -5.7838   0.0000   0.0000   0.0000  62.4206
 -11.520   0.0037   0.03307   0.02743  -0.2271  0.3626  0.0146  -5.7832   0.0000   0.0000   0.0000  70.7159
 -11.510   0.0032   0.03299   0.02736  -0.2270  0.3626  0.0146  -5.7825   0.0000   0.0000   0.0000  81.6441
 -11.500   0.0027   0.03292   0.02728  -0.2270  0.3626  0.0146  -5.7820   0.0000   0.0000   0.0000  97.0505
 -11.490   0.0022   0.03284   0.02721  -0.2269  0.3625  0.0146  -5.7814   0.0000   0.0000   0.0000  120.2013
 -11.480   0.0017   0.03277   0.02713  -0.2268  0.3625  0.0146  -5.7809   0.0000   0.0000   0.0000  159.0124
 -11.470   0.0011   0.03269   0.02705  -0.2268  0.3625  0.0146  -5.7805   0.0000   0.0000   0.0000  237.1575
 -11.460   0.0005   0.03262   0.02698  -0.2267  0.3625  0.0146  -5.7801   0.0000   0.0000   0.0000  479.4856
 -11.450  -0.0000   0.03254   0.02690  -0.2266  0.3625  0.0146  -5.7798   0.0000   0.0000   0.0000  -8770.0320
 -11.440  -0.0006   0.03246   0.02682  -0.2265  0.3625  0.0146  -5.7796   0.0000   0.0000   0.0000  -418.0000
 -11.430  -0.0012   0.03238   0.02674  -0.2265  0.3625  0.0146  -5.7794   0.0000   0.0000   0.0000  -210.0277
 -11.420  -0.0019   0.03230   0.02666  -0.2264  0.3625  0.0146  -5.7794   0.0000   0.0000   0.0000  -138.2224
 -11.410  -0.0026   0.03222   0.02658  -0.2263  0.3625  0.0146  -5.7795   0.0000   0.0000   0.0000  -101.7412
 -11.400  -0.0033   0.03214   0.02650  -0.2262  0.3625  0.0146  -5.7798   0.0000   0.0000   0.0000  -79.6039
 -11.390  -0.0040   0.03205   0.02641  -0.2262  0.3624  0.0146  -5.7803   0.0000   0.0000   0.0000  -64.7043
 -11.380  -0.0048   0.03196   0.02632  -0.2261  0.3624  0.0146  -5.7809   0.0000   0.0000   0.0000  -53.9766
 -11.370  -0.0057   0.03187   0.02623  -0.2260  0.3624  0.0146  -5.7818   0.0000   0.0000   0.0000  -45.8919
 -11.360  -0.0065   0.03178   0.02614  -0.2259  0.3624  0.0146  -5.7829   0.0000   0.0000   0.0000  -39.6665
 -11.350  -0.0074   0.03169   0.02605  -0.2258  0.3624  0.0146  -5.7838   0.0000   0.0000   0.0000  -35.0164
 -11.340  -0.0083   0.03160   0.02596  -0.2258  0.3624  0.0146  -5.7848   0.0000   0.0000   0.0000  -31.3176
 -11.330  -0.0091   0.03151   0.02587  -0.2257  0.3624  0.0146  -5.7856   0.0000   0.0000   0.0000  -28.4089
 -11.320  -0.0099   0.03143   0.02578  -0.2256  0.3624  0.0146  -5.7860   0.0000   0.0000   0.0000  -26.1515
 -11.310  -0.0106   0.03135   0.02570  -0.2255  0.3624  0.0146  -5.7861   0.0000   0.0000   0.0000  -24.4058
 -11.300  -0.0112   0.03128   0.02563  -0.2254  0.3624  0.0146  -5.7858   0.0000   0.0000   0.0000  -23.0429
 -11.290  -0.0118   0.03120   0.02556  -0.2253  0.3624  0.0146  -5.7853   0.0000   0.0000   0.0000  -21.9195
 -11.280  -0.0123   0.03113   0.02548  -0.2252  0.3623  0.0146  -5.7847   0.0000   0.0000   0.0000  -20.8940
 -11.270  -0.0129   0.03106   0.02541  -0.2252  0.3623  0.0146  -5.7842   0.0000   0.0000   0.0000  -19.9492
 -11.260  -0.0135   0.03099   0.02534  -0.2251  0.3623  0.0146  -5.7837   0.0000   0.0000   0.0000  -19.0747
 -11.250  -0.0140   0.03092   0.02527  -0.2250  0.3623  0.0146  -5.7832   0.0000   0.0000   0.0000  -18.2617
 -11.240  -0.0146   0.03085   0.02520  -0.2249  0.3623  0.0146  -5.7828   0.0000   0.0000   0.0000  -17.5026
 -11.230  -0.0152   0.03078   0.02513  -0.2248  0.3623  0.0146  -5.7824   0.0000   0.0000   0.0000  -16.7911
 -11.220  -0.0159   0.03071   0.02505  -0.2247  0.3623  0.0146  -5.7820   0.0000   0.0000   0.0000  -16.1215
 -11.210  -0.0165   0.03063   0.02498  -0.2246  0.3623  0.0146  -5.7817   0.0000   0.0000   0.0000  -15.4896
 -11.200  -0.0171   0.03056   0.02491  -0.2245  0.3623  0.0146  -5.7814   0.0000   0.0000   0.0000  -14.8927
 -11.190  -0.0178   0.03049   0.02483  -0.2244  0.3622  0.0146  -5.7813   0.0000   0.0000   0.0000  -14.3244
 -11.180  -0.0185   0.03041   0.02476  -0.2243  0.3622  0.0146  -5.7812   0.0000   0.0000   0.0000  -13.7814
 -11.170  -0.0192   0.03034   0.02468  -0.2242  0.3622  0.0146  -5.7812   0.0000   0.0000   0.0000  -13.2607
 -11.160  -0.0199   0.03026   0.02461  -0.2241  0.3622  0.0146  -5.7813   0.0000   0.0000   0.0000  -12.7595
 -11.150  -0.0207   0.03018   0.02453  -0.2240  0.3622  0.0146  -5.7815   0.0000   0.0000   0.0000  -12.2753
 -11.140  -0.0214   0.03010   0.02445  -0.2239  0.3622  0.0146  -5.7819   0.0000   0.0000   0.0000  -11.8059
 -11.130  -0.0223   0.03002   0.02437  -0.2238  0.3622  0.0146  -5.7825   0.0000   0.0000   0.0000  -11.3495
 -11.120  -0.0231   0.02994   0.02428  -0.2237  0.3622  0.0146  -5.7833   0.0000   0.0000   0.0000  -10.9050
 -11.110  -0.0241   0.02985   0.02420  -0.2236  0.3622  0.0146  -5.7842   0.0000   0.0000   0.0000  -10.4722
 -11.100  -0.0250   0.02977   0.02411  -0.2235  0.3622  0.0146  -5.7853   0.0000   0.0000   0.0000  -10.0574
 -11.090  -0.0260   0.02968   0.02402  -0.2234  0.3622  0.0146  -5.7863   0.0000   0.0000   0.0000  -9.6797
 -11.080  -0.0269   0.02960   0.02394  -0.2233  0.3621  0.0146  -5.7874   0.0000   0.0000   0.0000  -9.3258
 -11.070  -0.0278   0.02951   0.02385  -0.2232  0.3621  0.0146  -5.7883   0.0000   0.0000   0.0000  -9.0038
 -11.060  -0.0287   0.02943   0.02377  -0.2231  0.3621  0.0146  -5.7889   0.0000   0.0000   0.0000  -8.7187
 -11.050  -0.0295   0.02936   0.02369  -0.2230  0.3621  0.0146  -5.7892   0.0000   0.0000   0.0000  -8.4709
 -11.040  -0.0302   0.02928   0.02362  -0.2229  0.3621  0.0146  -5.7892   0.0000   0.0000   0.0000  -8.2568
 -11.030  -0.0309   0.02922   0.02355  -0.2228  0.3621  0.0146  -5.7889   0.0000   0.0000   0.0000  -8.0652
 -11.020  -0.0316   0.02915   0.02349  -0.2226  0.3621  0.0146  -5.7887   0.0000   0.0000   0.0000  -7.8801
 -11.010  -0.0323   0.02908   0.02342  -0.2225  0.3621  0.0146  -5.7885   0.0000   0.0000   0.0000  -7.7004
 -11.000  -0.0330   0.02901   0.02335  -0.2224  0.3621  0.0146  -5.7883   0.0000   0.0000   0.0000  -7.5257
 -10.990  -0.0337   0.02894   0.02328  -0.2223  0.3621  0.0146  -5.7881   0.0000   0.0000   0.0000  -7.3555
 -10.980  -0.0344   0.02887   0.02321  -0.2222  0.3620  0.0146  -5.7881   0.0000   0.0000   0.0000  -7.1894
 -10.970  -0.0352   0.02880   0.02314  -0.2221  0.3620  0.0146  -5.7880   0.0000   0.0000   0.0000  -7.0270
 -10.960  -0.0359   0.02873   0.02307  -0.2219  0.3620  0.0146  -5.7881   0.0000   0.0000   0.0000  -6.8682
 -10.950  -0.0367   0.02866   0.02300  -0.2218  0.3620  0.0146  -5.7882   0.0000   0.0000   0.0000  -6.7125
 -10.940  -0.0375   0.02859   0.02293  -0.2217  0.3620  0.0146  -5.7884   0.0000   0.0000   0.0000  -6.5593
 -10.930  -0.0383   0.02852   0.02285  -0.2216  0.3620  0.0146  -5.7887   0.0000   0.0000   0.0000  -6.4080
 -10.920  -0.0392   0.02845   0.02278  -0.2214  0.3620  0.0146  -5.7891   0.0000   0.0000   0.0000  -6.2584
 -10.910  -0.0401   0.02837   0.02270  -0.2213  0.3620  0.0146  -5.7897   0.0000   0.0000   0.0000  -6.1099
 -10.900  -0.0410   0.02830   0.02263  -0.2212  0.3620  0.0146  -5.7904   0.0000   0.0000   0.0000  -5.9623
 -10.890  -0.0420   0.02822   0.02255  -0.2210  0.3620  0.0146  -5.7913   0.0000   0.0000   0.0000  -5.8152
 -10.880  -0.0430   0.02814   0.02247  -0.2209  0.3619  0.0146  -5.7924   0.0000   0.0000   0.0000  -5.6685
 -10.870  -0.0440   0.02806   0.02239  -0.2208  0.3619  0.0146  -5.7937   0.0000   0.0000   0.0000  -5.5222
 -10.860  -0.0451   0.02797   0.02230  -0.2206  0.3619  0.0146  -5.7951   0.0000   0.0000   0.0000  -5.3795
 -10.850  -0.0462   0.02789   0.02222  -0.2205  0.3619  0.0146  -5.7964   0.0000   0.0000   0.0000  -5.2444
 -10.840  -0.0473   0.02781   0.02214  -0.2204  0.3619  0.0146  -5.7978   0.0000   0.0000   0.0000  -5.1146
 -10.830  -0.0484   0.02773   0.02206  -0.2202  0.3619  0.0146  -5.7990   0.0000   0.0000   0.0000  -4.9926
 -10.820  -0.0494   0.02765   0.02198  -0.2201  0.3619  0.0146  -5.8000   0.0000   0.0000   0.0000  -4.8808
 -10.810  -0.0503   0.02758   0.02191  -0.2199  0.3619  0.0146  -5.8008   0.0000   0.0000   0.0000  -4.7797
 -10.800  -0.0512   0.02751   0.02184  -0.2198  0.3619  0.0146  -5.8012   0.0000   0.0000   0.0000  -4.6887
 -10.790  -0.0521   0.02745   0.02177  -0.2196  0.3619  0.0146  -5.8014   0.0000   0.0000   0.0000  -4.6034
 -10.780  -0.0530   0.02738   0.02171  -0.2195  0.3619  0.0146  -5.8017   0.0000   0.0000   0.0000  -4.5196
 -10.770  -0.0539   0.02731   0.02164  -0.2193  0.3618  0.0146  -5.8021   0.0000   0.0000   0.0000  -4.4370
 -10.760  -0.0548   0.02725   0.02157  -0.2192  0.3618  0.0146  -5.8025   0.0000   0.0000   0.0000  -4.3555
 -10.750  -0.0557   0.02718   0.02151  -0.2190  0.3618  0.0146  -5.8031   0.0000   0.0000   0.0000  -4.2750
 -10.740  -0.0566   0.02711   0.02144  -0.2189  0.3618  0.0146  -5.8037   0.0000   0.0000   0.0000  -4.1953
 -10.730  -0.0576   0.02704   0.02137  -0.2187  0.3618  0.0146  -5.8044   0.0000   0.0000   0.0000  -4.1166
 -10.720  -0.0586   0.02698   0.02130  -0.2185  0.3618  0.0146  -5.8051   0.0000   0.0000   0.0000  -4.0385
 -10.710  -0.0597   0.02691   0.02123  -0.2184  0.3618  0.0146  -5.8061   0.0000   0.0000   0.0000  -3.9607
 -10.700  -0.0607   0.02683   0.02116  -0.2182  0.3618  0.0146  -5.8071   0.0000   0.0000   0.0000  -3.8831
 -10.690  -0.0618   0.02676   0.02109  -0.2180  0.3618  0.0146  -5.8084   0.0000   0.0000   0.0000  -3.8055
 -10.680  -0.0630   0.02669   0.02101  -0.2179  0.3618  0.0146  -5.8098   0.0000   0.0000   0.0000  -3.7278
 -10.670  -0.0642   0.02661   0.02094  -0.2177  0.3617  0.0146  -5.8114   0.0000   0.0000   0.0000  -3.6499
 -10.660  -0.0655   0.02654   0.02086  -0.2175  0.3617  0.0146  -5.8132   0.0000   0.0000   0.0000  -3.5716
 -10.650  -0.0668   0.02646   0.02078  -0.2173  0.3617  0.0146  -5.8152   0.0000   0.0000   0.0000  -3.4932
 -10.640  -0.0681   0.02638   0.02070  -0.2172  0.3617  0.0146  -5.8173   0.0000   0.0000   0.0000  -3.4172
 -10.630  -0.0694   0.02630   0.02062  -0.2170  0.3617  0.0146  -5.8194   0.0000   0.0000   0.0000  -3.3433
 -10.620  -0.0708   0.02622   0.02054  -0.2168  0.3617  0.0146  -5.8216   0.0000   0.0000   0.0000  -3.2716
 -10.610  -0.0721   0.02614   0.02047  -0.2166  0.3617  0.0146  -5.8236   0.0000   0.0000   0.0000  -3.2034
 -10.600  -0.0734   0.02607   0.02039  -0.2164  0.3617  0.0146  -5.8254   0.0000   0.0000   0.0000  -3.1396
 -10.590  -0.0746   0.02600   0.02033  -0.2162  0.3617  0.0146  -5.8270   0.0000   0.0000   0.0000  -3.0804
 -10.580  -0.0758   0.02594   0.02026  -0.2160  0.3617  0.0146  -5.8283   0.0000   0.0000   0.0000  -3.0250
 -10.570  -0.0770   0.02587   0.02019  -0.2158  0.3617  0.0146  -5.8297   0.0000   0.0000   0.0000  -2.9707
 -10.560  -0.0782   0.02581   0.02013  -0.2156  0.3617  0.0146  -5.8312   0.0000   0.0000   0.0000  -2.9167
 -10.550  -0.0795   0.02574   0.02006  -0.2154  0.3616  0.0146  -5.8328   0.0000   0.0000   0.0000  -2.8631
 -10.540  -0.0808   0.02568   0.02000  -0.2152  0.3616  0.0146  -5.8346   0.0000   0.0000   0.0000  -2.8095
 -10.530  -0.0822   0.02561   0.01993  -0.2149  0.3616  0.0146  -5.8367   0.0000   0.0000   0.0000  -2.7535
 -10.520  -0.0838   0.02554   0.01986  -0.2147  0.3616  0.0146  -5.8394   0.0000   0.0000   0.0000  -2.6937
 -10.510  -0.0856   0.02548   0.01980  -0.2144  0.3616  0.0146  -5.8428   0.0000   0.0000   0.0000  -2.6299
 -10.500  -0.0875   0.02541   0.01973  -0.2141  0.3616  0.0146  -5.8468   0.0000   0.0000   0.0000  -2.5616
 -10.490  -0.0897   0.02534   0.01966  -0.2137  0.3616  0.0146  -5.8517   0.0000   0.0000   0.0000  -2.4888
 -10.480  -0.0921   0.02527   0.01960  -0.2133  0.3616  0.0146  -5.8575   0.0000   0.0000   0.0000  -2.4115
 -10.470  -0.0949   0.02520   0.01953  -0.2129  0.3616  0.0146  -5.8643   0.0000   0.0000   0.0000  -2.3304
 -10.460  -0.0978   0.02513   0.01946  -0.2125  0.3616  0.0146  -5.8721   0.0000   0.0000   0.0000  -2.2465
 -10.450  -0.1010   0.02506   0.01939  -0.2120  0.3616  0.0146  -5.8804   0.0000   0.0000   0.0000  -2.1638
 -10.440  -0.1043   0.02499   0.01932  -0.2115  0.3616  0.0146  -5.8892   0.0000   0.0000   0.0000  -2.0825
 -10.430  -0.1076   0.02492   0.01926  -0.2110  0.3616  0.0146  -5.8982   0.0000   0.0000   0.0000  -2.0045
 -10.420  -0.1110   0.02486   0.01919  -0.2104  0.3616  0.0146  -5.9073   0.0000   0.0000   0.0000  -1.9312
 -10.410  -0.1142   0.02479   0.01913  -0.2099  0.3616  0.0146  -5.9160   0.0000   0.0000   0.0000  -1.8637
 -10.400  -0.1174   0.02473   0.01907  -0.2094  0.3616  0.0146  -5.9243   0.0000   0.0000   0.0000  -1.8019
 -10.390  -0.1205   0.02467   0.01901  -0.2089  0.3616  0.0146  -5.9324   0.0000   0.0000   0.0000  -1.7443
 -10.380  -0.1237   0.02461   0.01895  -0.2084  0.3616  0.0146  -5.9406   0.0000   0.0000   0.0000  -1.6894
 -10.370  -0.1268   0.02454   0.01889  -0.2079  0.3616  0.0146  -5.9489   0.0000   0.0000   0.0000  -1.6367
 -10.360  -0.1300   0.02448   0.01882  -0.2074  0.3616  0.0146  -5.9574   0.0000   0.0000   0.0000  -1.5860
 -10.350  -0.1333   0.02441   0.01876  -0.2069  0.3616  0.0146  -5.9662   0.0000   0.0000   0.0000  -1.5368
 -10.340  -0.1367   0.02434   0.01869  -0.2064  0.3616  0.0146  -5.9753   0.0000   0.0000   0.0000  -1.4888
 -10.330  -0.1402   0.02427   0.01862  -0.2059  0.3616  0.0146  -5.9850   0.0000   0.0000   0.0000  -1.4417
 -10.320  -0.1438   0.02420   0.01855  -0.2053  0.3616  0.0146  -5.9951   0.0000   0.0000   0.0000  -1.3950
 -10.310  -0.1476   0.02412   0.01847  -0.2048  0.3616  0.0146  -6.0059   0.0000   0.0000   0.0000  -1.3489
 -10.300  -0.1515   0.02404   0.01840  -0.2042  0.3616  0.0146  -6.0172   0.0000   0.0000   0.0000  -1.3038
 -10.290  -0.1556   0.02397   0.01832  -0.2036  0.3616  0.0146  -6.0292   0.0000   0.0000   0.0000  -1.2588
 -10.280  -0.1598   0.02389   0.01825  -0.2030  0.3616  0.0146  -6.0419   0.0000   0.0000   0.0000  -1.2142
 -10.270  -0.1643   0.02382   0.01818  -0.2024  0.3616  0.0146  -6.0552   0.0000   0.0000   0.0000  -1.1701
 -10.260  -0.1690   0.02375   0.01811  -0.2017  0.3616  0.0146  -6.0691   0.0000   0.0000   0.0000  -1.1269
 -10.250  -0.1739   0.02368   0.01805  -0.2010  0.3616  0.0146  -6.0840   0.0000   0.0000   0.0000  -1.0836
 -10.240  -0.1791   0.02361   0.01798  -0.2002  0.3616  0.0146  -6.1000   0.0000   0.0000   0.0000  -1.0404
 -10.230  -0.1844   0.02354   0.01791  -0.1994  0.3616  0.0146  -6.1166   0.0000   0.0000   0.0000  -0.9985
 -10.220  -0.1898   0.02346   0.01784  -0.1987  0.3616  0.0146  -6.1332   0.0000   0.0000   0.0000  -0.9592
 -10.210  -0.1947   0.02338   0.01776  -0.1980  0.3616  0.0146  -6.1483   0.0000   0.0000   0.0000  -0.9248
 -10.200  -0.1987   0.02330   0.01768  -0.1974  0.3616  0.0146  -6.1603   0.0000   0.0000   0.0000  -0.8979
 -10.190  -0.2019   0.02321   0.01759  -0.1970  0.3616  0.0146  -6.1690   0.0000   0.0000   0.0000  -0.8777
 -10.180  -0.2042   0.02313   0.01750  -0.1967  0.3616  0.0146  -6.1747   0.0000   0.0000   0.0000  -0.8632
 -10.170  -0.2061   0.02304   0.01742  -0.1964  0.3616  0.0146  -6.1787   0.0000   0.0000   0.0000  -0.8516
 -10.160  -0.2079   0.02295   0.01733  -0.1962  0.3616  0.0146  -6.1826   0.0000   0.0000   0.0000  -0.8403
 -10.150  -0.2098   0.02287   0.01725  -0.1959  0.3616  0.0146  -6.1866   0.0000   0.0000   0.0000  -0.8291
 -10.140  -0.2117   0.02279   0.01716  -0.1956  0.3616  0.0146  -6.1907   0.0000   0.0000   0.0000  -0.8179
 -10.130  -0.2137   0.02270   0.01708  -0.1954  0.3616  0.0146  -6.1949   0.0000   0.0000   0.0000  -0.8067
 -10.120  -0.2156   0.02261   0.01699  -0.1951  0.3616  0.0146  -6.1992   0.0000   0.0000   0.0000  -0.7958
 -10.110  -0.2175   0.02252   0.01690  -0.1948  0.3616  0.0146  -6.2033   0.0000   0.0000   0.0000  -0.7853
 -10.100  -0.2193   0.02244   0.01681  -0.1946  0.3616  0.0146  -6.2071   0.0000   0.0000   0.0000  -0.7754
 -10.090  -0.2211   0.02235   0.01672  -0.1944  0.3616  0.0146  -6.2107   0.0000   0.0000   0.0000  -0.7661
 -10.080  -0.2227   0.02226   0.01664  -0.1942  0.3616  0.0146  -6.2139   0.0000   0.0000   0.0000  -0.7574
 -10.070  -0.2243   0.02218   0.01655  -0.1939  0.3615  0.0146  -6.2165   0.0000   0.0000   0.0000  -0.7494
 -10.060  -0.2257   0.02209   0.01647  -0.1938  0.3615  0.0146  -6.2187   0.0000   0.0000   0.0000  -0.7421
 -10.050  -0.2270   0.02201   0.01639  -0.1936  0.3615  0.0146  -6.2206   0.0000   0.0000   0.0000  -0.7353
 -10.040  -0.2283   0.02193   0.01630  -0.1934  0.3615  0.0146  -6.2224   0.0000   0.0000   0.0000  -0.7288
 -10.030  -0.2295   0.02184   0.01621  -0.1932  0.3615  0.0146  -6.2241   0.0000   0.0000   0.0000  -0.7226
 -10.020  -0.2307   0.02175   0.01612  -0.1931  0.3615  0.0146  -6.2255   0.0000   0.0000   0.0000  -0.7168
 -10.010  -0.2318   0.02167   0.01603  -0.1929  0.3615  0.0146  -6.2267   0.0000   0.0000   0.0000  -0.7113
 -10.000  -0.2329   0.02158   0.01595  -0.1928  0.3615  0.0146  -6.2277   0.0000   0.0000   0.0000  -0.7062
  -9.990  -0.2339   0.02149   0.01586  -0.1927  0.3615  0.0146  -6.2284   0.0000   0.0000   0.0000  -0.7015
  -9.980  -0.2348   0.02141   0.01577  -0.1926  0.3615  0.0146  -6.2287   0.0000   0.0000   0.0000  -0.6971
  -9.970  -0.2356   0.02132   0.01569  -0.1925  0.3614  0.0146  -6.2286   0.0000   0.0000   0.0000  -0.6933
  -9.960  -0.2363   0.02124   0.01561  -0.1924  0.3614  0.0146  -6.2283   0.0000   0.0000   0.0000  -0.6897
  -9.950  -0.2370   0.02116   0.01552  -0.1923  0.3614  0.0146  -6.2279   0.0000   0.0000   0.0000  -0.6863
  -9.940  -0.2377   0.02107   0.01543  -0.1922  0.3614  0.0146  -6.2275   0.0000   0.0000   0.0000  -0.6831
  -9.930  -0.2384   0.02099   0.01535  -0.1921  0.3614  0.0146  -6.2269   0.0000   0.0000   0.0000  -0.6801
  -9.920  -0.2390   0.02090   0.01526  -0.1920  0.3614  0.0146  -6.2261   0.0000   0.0000   0.0000  -0.6773
  -9.910  -0.2396   0.02082   0.01517  -0.1920  0.3614  0.0146  -6.2253   0.0000   0.0000   0.0000  -0.6746
  -9.900  -0.2401   0.02073   0.01508  -0.1919  0.3614  0.0146  -6.2243   0.0000   0.0000   0.0000  -0.6721
  -9.890  -0.2406   0.02065   0.01500  -0.1918  0.3614  0.0146  -6.2232   0.0000   0.0000   0.0000  -0.6696
  -9.880  -0.2411   0.02057   0.01492  -0.1918  0.3613  0.0146  -6.2219   0.0000   0.0000   0.0000  -0.6674
  -9.870  -0.2415   0.02048   0.01483  -0.1917  0.3613  0.0146  -6.2205   0.0000   0.0000   0.0000  -0.6653
  -9.860  -0.2420   0.02040   0.01475  -0.1917  0.3613  0.0146  -6.2191   0.0000   0.0000   0.0000  -0.6633
  -9.850  -0.2424   0.02032   0.01466  -0.1916  0.3613  0.0146  -6.2175   0.0000   0.0000   0.0000  -0.6614
  -9.840  -0.2428   0.02023   0.01458  -0.1916  0.3613  0.0146  -6.2159   0.0000   0.0000   0.0000  -0.6597
  -9.830  -0.2431   0.02015   0.01449  -0.1916  0.3613  0.0146  -6.2141   0.0000   0.0000   0.0000  -0.6581
  -9.820  -0.2434   0.02007   0.01440  -0.1915  0.3613  0.0146  -6.2121   0.0000   0.0000   0.0000  -0.6568
  -9.810  -0.2436   0.01999   0.01432  -0.1915  0.3613  0.0146  -6.2098   0.0000   0.0000   0.0000  -0.6558
  -9.800  -0.2438   0.01991   0.01424  -0.1915  0.3612  0.0146  -6.2074   0.0000   0.0000   0.0000  -0.6549
  -9.790  -0.2439   0.01982   0.01415  -0.1915  0.3612  0.0146  -6.2048   0.0000   0.0000   0.0000  -0.6543
  -9.780  -0.2440   0.01974   0.01407  -0.1915  0.3612  0.0146  -6.2020   0.0000   0.0000   0.0000  -0.6538
  -9.770  -0.2440   0.01966   0.01398  -0.1915  0.3612  0.0146  -6.1991   0.0000   0.0000   0.0000  -0.6535
  -9.760  -0.2440   0.01958   0.01390  -0.1915  0.3612  0.0146  -6.1960   0.0000   0.0000   0.0000  -0.6535
  -9.750  -0.2439   0.01950   0.01382  -0.1915  0.3612  0.0146  -6.1926   0.0000   0.0000   0.0000  -0.6536
  -9.740  -0.2438   0.01942   0.01374  -0.1916  0.3612  0.0146  -6.1890   0.0000   0.0000   0.0000  -0.6540
  -9.730  -0.2436   0.01935   0.01366  -0.1916  0.3611  0.0146  -6.1854   0.0000   0.0000   0.0000  -0.6545
  -9.720  -0.2434   0.01927   0.01358  -0.1916  0.3611  0.0146  -6.1816   0.0000   0.0000   0.0000  -0.6552
  -9.710  -0.2432   0.01919   0.01350  -0.1917  0.3611  0.0146  -6.1775   0.0000   0.0000   0.0000  -0.6561
  -9.700  -0.2429   0.01912   0.01342  -0.1917  0.3611  0.0146  -6.1733   0.0000   0.0000   0.0000  -0.6571
  -9.690  -0.2426   0.01904   0.01334  -0.1917  0.3611  0.0146  -6.1690   0.0000   0.0000   0.0000  -0.6583
  -9.680  -0.2422   0.01897   0.01327  -0.1918  0.3611  0.0146  -6.1646   0.0000   0.0000   0.0000  -0.6596
  -9.670  -0.2419   0.01890   0.01319  -0.1918  0.3611  0.0146  -6.1599   0.0000   0.0000   0.0000  -0.6611
  -9.660  -0.2414   0.01883   0.01312  -0.1919  0.3610  0.0146  -6.1552   0.0000   0.0000   0.0000  -0.6628
  -9.650  -0.2410   0.01876   0.01304  -0.1919  0.3610  0.0146  -6.1503   0.0000   0.0000   0.0000  -0.6645
  -9.640  -0.2405   0.01869   0.01297  -0.1920  0.3610  0.0146  -6.1453   0.0000   0.0000   0.0000  -0.6663
  -9.630  -0.2400   0.01862   0.01290  -0.1920  0.3610  0.0146  -6.1402   0.0000   0.0000   0.0000  -0.6683
  -9.620  -0.2395   0.01856   0.01284  -0.1921  0.3610  0.0146  -6.1349   0.0000   0.0000   0.0000  -0.6703
  -9.610  -0.2390   0.01850   0.01277  -0.1921  0.3610  0.0146  -6.1296   0.0000   0.0000   0.0000  -0.6723
  -9.600  -0.2384   0.01844   0.01271  -0.1921  0.3609  0.0146  -6.1242   0.0000   0.0000   0.0000  -0.6744
  -9.590  -0.2378   0.01838   0.01265  -0.1922  0.3609  0.0146  -6.1187   0.0000   0.0000   0.0000  -0.6764
  -9.580  -0.2373   0.01833   0.01260  -0.1922  0.3609  0.0146  -6.1131   0.0000   0.0000   0.0000  -0.6785
  -9.570  -0.2367   0.01829   0.01255  -0.1922  0.3609  0.0146  -6.1075   0.0000   0.0000   0.0000  -0.6806
  -9.560  -0.2361   0.01824   0.01250  -0.1922  0.3609  0.0146  -6.1018   0.0000   0.0000   0.0000  -0.6826
  -9.550  -0.2356   0.01820   0.01245  -0.1921  0.3609  0.0146  -6.0961   0.0000   0.0000   0.0000  -0.6847
  -9.540  -0.2350   0.01816   0.01241  -0.1921  0.3608  0.0146  -6.0903   0.0000   0.0000   0.0000  -0.6866
  -9.530  -0.2344   0.01812   0.01237  -0.1921  0.3608  0.0146  -6.0845   0.0000   0.0000   0.0000  -0.6886
  -9.520  -0.2339   0.01808   0.01233  -0.1921  0.3608  0.0146  -6.0787   0.0000   0.0000   0.0000  -0.6906
  -9.510  -0.2333   0.01804   0.01229  -0.1920  0.3608  0.0146  -6.0729   0.0000   0.0000   0.0000  -0.6925
  -9.500  -0.2327   0.01801   0.01225  -0.1920  0.3608  0.0146  -6.0670   0.0000   0.0000   0.0000  -0.6945
  -9.490  -0.2322   0.01798   0.01222  -0.1919  0.3608  0.0146  -6.0611   0.0000   0.0000   0.0000  -0.6965
  -9.480  -0.2316   0.01794   0.01218  -0.1919  0.3607  0.0146  -6.0551   0.0000   0.0000   0.0000  -0.6985
  -9.470  -0.2310   0.01791   0.01215  -0.1918  0.3607  0.0146  -6.0492   0.0000   0.0000   0.0000  -0.7006
  -9.460  -0.2304   0.01788   0.01212  -0.1918  0.3607  0.0146  -6.0432   0.0000   0.0000   0.0000  -0.7026
  -9.450  -0.2298   0.01785   0.01208  -0.1917  0.3607  0.0146  -6.0373   0.0000   0.0000   0.0000  -0.7047
  -9.440  -0.2292   0.01782   0.01205  -0.1917  0.3607  0.0146  -6.0313   0.0000   0.0000   0.0000  -0.7067
  -9.430  -0.2286   0.01779   0.01202  -0.1916  0.3607  0.0146  -6.0253   0.0000   0.0000   0.0000  -0.7088
  -9.420  -0.2280   0.01776   0.01199  -0.1916  0.3606  0.0146  -6.0193   0.0000   0.0000   0.0000  -0.7109
  -9.410  -0.2274   0.01773   0.01195  -0.1915  0.3606  0.0147  -6.0133   0.0000   0.0000   0.0000  -0.7130
  -9.400  -0.2268   0.01770   0.01192  -0.1915  0.3606  0.0147  -6.0073   0.0000   0.0000   0.0000  -0.7151
  -9.390  -0.2262   0.01767   0.01189  -0.1914  0.3606  0.0147  -6.0013   0.0000   0.0000   0.0000  -0.7172
  -9.380  -0.2256   0.01764   0.01186  -0.1913  0.3606  0.0147  -5.9953   0.0000   0.0000   0.0000  -0.7194
  -9.370  -0.2250   0.01762   0.01183  -0.1913  0.3606  0.0147  -5.9892   0.0000   0.0000   0.0000  -0.7215
  -9.360  -0.2244   0.01759   0.01180  -0.1912  0.3605  0.0147  -5.9831   0.0000   0.0000   0.0000  -0.7237
  -9.350  -0.2238   0.01756   0.01177  -0.1912  0.3605  0.0147  -5.9770   0.0000   0.0000   0.0000  -0.7260
  -9.340  -0.2232   0.01753   0.01175  -0.1911  0.3605  0.0147  -5.9709   0.0000   0.0000   0.0000  -0.7283
  -9.330  -0.2226   0.01751   0.01172  -0.1910  0.3605  0.0147  -5.9648   0.0000   0.0000   0.0000  -0.7306
  -9.320  -0.2219   0.01748   0.01169  -0.1910  0.3605  0.0147  -5.9586   0.0000   0.0000   0.0000  -0.7330
  -9.310  -0.2213   0.01745   0.01166  -0.1909  0.3605  0.0147  -5.9525   0.0000   0.0000   0.0000  -0.7354
  -9.300  -0.2206   0.01743   0.01163  -0.1909  0.3604  0.0147  -5.9462   0.0000   0.0000   0.0000  -0.7378
  -9.290  -0.2200   0.01740   0.01161  -0.1908  0.3604  0.0147  -5.9400   0.0000   0.0000   0.0000  -0.7403
  -9.280  -0.2193   0.01738   0.01158  -0.1908  0.3604  0.0147  -5.9337   0.0000   0.0000   0.0000  -0.7429
  -9.270  -0.2187   0.01735   0.01155  -0.1907  0.3604  0.0147  -5.9275   0.0000   0.0000   0.0000  -0.7455
  -9.260  -0.2180   0.01733   0.01153  -0.1906  0.3604  0.0147  -5.9212   0.0000   0.0000   0.0000  -0.7481
  -9.250  -0.2173   0.01730   0.01150  -0.1906  0.3604  0.0147  -5.9148   0.0000   0.0000   0.0000  -0.7508
  -9.240  -0.2166   0.01728   0.01147  -0.1905  0.3603  0.0147  -5.9085   0.0000   0.0000   0.0000  -0.7535
  -9.230  -0.2159   0.01726   0.01145  -0.1905  0.3603  0.0147  -5.9021   0.0000   0.0000   0.0000  -0.7563
  -9.220  -0.2152   0.01723   0.01142  -0.1904  0.3603  0.0147  -5.8957   0.0000   0.0000   0.0000  -0.7591
  -9.210  -0.2145   0.01721   0.01140  -0.1904  0.3603  0.0147  -5.8893   0.0000   0.0000   0.0000  -0.7620
  -9.200  -0.2138   0.01719   0.01137  -0.1903  0.3603  0.0147  -5.8828   0.0000   0.0000   0.0000  -0.7650
  -9.190  -0.2131   0.01716   0.01135  -0.1902  0.3602  0.0147  -5.8763   0.0000   0.0000   0.0000  -0.7680
  -9.180  -0.2124   0.01714   0.01132  -0.1902  0.3602  0.0147  -5.8698   0.0000   0.0000   0.0000  -0.7711
  -9.170  -0.2116   0.01712   0.01130  -0.1901  0.3602  0.0147  -5.8633   0.0000   0.0000   0.0000  -0.7742
  -9.160  -0.2109   0.01709   0.01127  -0.1901  0.3602  0.0147  -5.8568   0.0000   0.0000   0.0000  -0.7774
  -9.150  -0.2101   0.01707   0.01125  -0.1900  0.3602  0.0147  -5.8502   0.0000   0.0000   0.0000  -0.7806
  -9.140  -0.2094   0.01705   0.01122  -0.1900  0.3602  0.0147  -5.8436   0.0000   0.0000   0.0000  -0.7839
  -9.130  -0.2086   0.01703   0.01120  -0.1899  0.3601  0.0147  -5.8370   0.0000   0.0000   0.0000  -0.7872
  -9.120  -0.2078   0.01701   0.01118  -0.1899  0.3601  0.0147  -5.8304   0.0000   0.0000   0.0000  -0.7907
  -9.110  -0.2071   0.01698   0.01115  -0.1898  0.3601  0.0147  -5.8237   0.0000   0.0000   0.0000  -0.7941
  -9.100  -0.2063   0.01696   0.01113  -0.1898  0.3601  0.0147  -5.8170   0.0000   0.0000   0.0000  -0.7976
  -9.090  -0.2055   0.01694   0.01111  -0.1897  0.3601  0.0147  -5.8104   0.0000   0.0000   0.0000  -0.8012
  -9.080  -0.2047   0.01692   0.01108  -0.1897  0.3601  0.0147  -5.8037   0.0000   0.0000   0.0000  -0.8049
  -9.070  -0.2039   0.01690   0.01106  -0.1896  0.3600  0.0147  -5.7969   0.0000   0.0000   0.0000  -0.8085
  -9.060  -0.2031   0.01688   0.01104  -0.1896  0.3600  0.0147  -5.7902   0.0000   0.0000   0.0000  -0.8123
  -9.050  -0.2023   0.01686   0.01101  -0.1895  0.3600  0.0147  -5.7834   0.0000   0.0000   0.0000  -0.8161
  -9.040  -0.2015   0.01684   0.01099  -0.1895  0.3600  0.0147  -5.7767   0.0000   0.0000   0.0000  -0.8200
  -9.030  -0.2007   0.01682   0.01097  -0.1894  0.3600  0.0147  -5.7699   0.0000   0.0000   0.0000  -0.8239
  -9.020  -0.1998   0.01680   0.01095  -0.1894  0.3599  0.0147  -5.7631   0.0000   0.0000   0.0000  -0.8279
  -9.010  -0.1990   0.01678   0.01093  -0.1893  0.3599  0.0147  -5.7563   0.0000   0.0000   0.0000  -0.8319
  -9.000  -0.1982   0.01676   0.01091  -0.1893  0.3599  0.0147  -5.7494   0.0000   0.0000   0.0000  -0.8361
  -8.990  -0.1973   0.01674   0.01088  -0.1892  0.3599  0.0147  -5.7426   0.0000   0.0000   0.0000  -0.8402
  -8.980  -0.1965   0.01672   0.01086  -0.1892  0.3599  0.0147  -5.7357   0.0000   0.0000   0.0000  -0.8445
  -8.970  -0.1957   0.01670   0.01084  -0.1891  0.3599  0.0147  -5.7289   0.0000   0.0000   0.0000  -0.8488
  -8.960  -0.1948   0.01668   0.01082  -0.1891  0.3598  0.0147  -5.7220   0.0000   0.0000   0.0000  -0.8531
  -8.950  -0.1940   0.01666   0.01080  -0.1890  0.3598  0.0147  -5.7151   0.0000   0.0000   0.0000  -0.8575
  -8.940  -0.1931   0.01664   0.01078  -0.1890  0.3598  0.0147  -5.7082   0.0000   0.0000   0.0000  -0.8620
  -8.930  -0.1922   0.01662   0.01076  -0.1889  0.3598  0.0147  -5.7013   0.0000   0.0000   0.0000  -0.8666
  -8.920  -0.1914   0.01660   0.01074  -0.1889  0.3598  0.0147  -5.6943   0.0000   0.0000   0.0000  -0.8712
  -8.910  -0.1905   0.01658   0.01072  -0.1888  0.3597  0.0147  -5.6874   0.0000   0.0000   0.0000  -0.8758
  -8.900  -0.1896   0.01657   0.01070  -0.1888  0.3597  0.0147  -5.6805   0.0000   0.0000   0.0000  -0.8806
  -8.890  -0.1888   0.01655   0.01068  -0.1887  0.3597  0.0147  -5.6735   0.0000   0.0000   0.0000  -0.8854
  -8.880  -0.1879   0.01653   0.01066  -0.1887  0.3597  0.0147  -5.6665   0.0000   0.0000   0.0000  -0.8903
  -8.870  -0.1870   0.01651   0.01064  -0.1887  0.3597  0.0148  -5.6596   0.0000   0.0000   0.0000  -0.8952
  -8.860  -0.1861   0.01649   0.01062  -0.1886  0.3597  0.0148  -5.6526   0.0000   0.0000   0.0000  -0.9002
  -8.850  -0.1852   0.01648   0.01060  -0.1886  0.3596  0.0148  -5.6456   0.0000   0.0000   0.0000  -0.9053
  -8.840  -0.1843   0.01646   0.01058  -0.1885  0.3596  0.0148  -5.6386   0.0000   0.0000   0.0000  -0.9105
  -8.830  -0.1834   0.01644   0.01056  -0.1885  0.3596  0.0148  -5.6316   0.0000   0.0000   0.0000  -0.9157
  -8.820  -0.1825   0.01642   0.01054  -0.1884  0.3596  0.0148  -5.6246   0.0000   0.0000   0.0000  -0.9210
  -8.810  -0.1816   0.01641   0.01052  -0.1884  0.3596  0.0148  -5.6176   0.0000   0.0000   0.0000  -0.9263
  -8.800  -0.1807   0.01639   0.01050  -0.1883  0.3595  0.0148  -5.6105   0.0000   0.0000   0.0000  -0.9318
  -8.790  -0.1798   0.01637   0.01048  -0.1883  0.3595  0.0148  -5.6035   0.0000   0.0000   0.0000  -0.9373
  -8.780  -0.1789   0.01635   0.01046  -0.1883  0.3595  0.0148  -5.5965   0.0000   0.0000   0.0000  -0.9428
  -8.770  -0.1780   0.01634   0.01045  -0.1882  0.3595  0.0148  -5.5895   0.0000   0.0000   0.0000  -0.9483
  -8.760  -0.1771   0.01632   0.01043  -0.1882  0.3595  0.0148  -5.5825   0.0000   0.0000   0.0000  -0.9540
  -8.750  -0.1762   0.01630   0.01041  -0.1881  0.3595  0.0148  -5.5755   0.0000   0.0000   0.0000  -0.9596
  -8.740  -0.1753   0.01629   0.01039  -0.1881  0.3594  0.0148  -5.5685   0.0000   0.0000   0.0000  -0.9653
  -8.730  -0.1744   0.01627   0.01037  -0.1880  0.3594  0.0148  -5.5616   0.0000   0.0000   0.0000  -0.9711
  -8.720  -0.1735   0.01626   0.01036  -0.1880  0.3594  0.0148  -5.5546   0.0000   0.0000   0.0000  -0.9769
  -8.710  -0.1726   0.01624   0.01034  -0.1879  0.3594  0.0148  -5.5476   0.0000   0.0000   0.0000  -0.9828
  -8.700  -0.1717   0.01622   0.01032  -0.1879  0.3594  0.0148  -5.5406   0.0000   0.0000   0.0000  -0.9888
  -8.690  -0.1708   0.01621   0.01030  -0.1878  0.3593  0.0148  -5.5337   0.0000   0.0000   0.0000  -0.9948
  -8.680  -0.1700   0.01619   0.01029  -0.1878  0.3593  0.0148  -5.5267   0.0000   0.0000   0.0000  -1.0008
  -8.670  -0.1691   0.01618   0.01027  -0.1877  0.3593  0.0148  -5.5197   0.0000   0.0000   0.0000  -1.0070
  -8.660  -0.1682   0.01616   0.01025  -0.1877  0.3593  0.0148  -5.5128   0.0000   0.0000   0.0000  -1.0132
  -8.650  -0.1673   0.01615   0.01024  -0.1876  0.3593  0.0148  -5.5058   0.0000   0.0000   0.0000  -1.0195
  -8.640  -0.1664   0.01613   0.01022  -0.1876  0.3592  0.0148  -5.4989   0.0000   0.0000   0.0000  -1.0258
  -8.630  -0.1655   0.01612   0.01020  -0.1875  0.3592  0.0148  -5.4919   0.0000   0.0000   0.0000  -1.0322
  -8.620  -0.1646   0.01610   0.01019  -0.1875  0.3592  0.0148  -5.4850   0.0000   0.0000   0.0000  -1.0387
  -8.610  -0.1637   0.01609   0.01017  -0.1874  0.3592  0.0148  -5.4780   0.0000   0.0000   0.0000  -1.0453
  -8.600  -0.1627   0.01607   0.01016  -0.1874  0.3591  0.0148  -5.4710   0.0000   0.0000   0.0000  -1.0520
  -8.590  -0.1618   0.01606   0.01014  -0.1873  0.3591  0.0148  -5.4641   0.0000   0.0000   0.0000  -1.0588
  -8.580  -0.1609   0.01605   0.01012  -0.1873  0.3591  0.0148  -5.4571   0.0000   0.0000   0.0000  -1.0656
  -8.570  -0.1600   0.01603   0.01011  -0.1872  0.3591  0.0148  -5.4501   0.0000   0.0000   0.0000  -1.0726
  -8.560  -0.1591   0.01602   0.01009  -0.1872  0.3590  0.0148  -5.4432   0.0000   0.0000   0.0000  -1.0797
  -8.550  -0.1582   0.01600   0.01008  -0.1871  0.3590  0.0148  -5.4362   0.0000   0.0000   0.0000  -1.0868
  -8.540  -0.1573   0.01599   0.01006  -0.1871  0.3590  0.0148  -5.4292   0.0000   0.0000   0.0000  -1.0941
  -8.530  -0.1564   0.01598   0.01005  -0.1870  0.3590  0.0148  -5.4222   0.0000   0.0000   0.0000  -1.1014
  -8.520  -0.1554   0.01596   0.01003  -0.1870  0.3589  0.0148  -5.4152   0.0000   0.0000   0.0000  -1.1088
  -8.510  -0.1545   0.01595   0.01001  -0.1869  0.3589  0.0148  -5.4083   0.0000   0.0000   0.0000  -1.1164
  -8.500  -0.1536   0.01593   0.01000  -0.1869  0.3589  0.0148  -5.4013   0.0000   0.0000   0.0000  -1.1241
  -8.490  -0.1527   0.01592   0.00998  -0.1868  0.3588  0.0148  -5.3943   0.0000   0.0000   0.0000  -1.1318
  -8.480  -0.1517   0.01591   0.00997  -0.1868  0.3588  0.0148  -5.3873   0.0000   0.0000   0.0000  -1.1397
  -8.470  -0.1508   0.01589   0.00995  -0.1867  0.3588  0.0148  -5.3803   0.0000   0.0000   0.0000  -1.1478
  -8.460  -0.1499   0.01588   0.00994  -0.1867  0.3587  0.0148  -5.3733   0.0000   0.0000   0.0000  -1.1559
  -8.450  -0.1489   0.01587   0.00993  -0.1867  0.3587  0.0148  -5.3663   0.0000   0.0000   0.0000  -1.1642
  -8.440  -0.1480   0.01586   0.00991  -0.1866  0.3587  0.0148  -5.3593   0.0000   0.0000   0.0000  -1.1726
  -8.430  -0.1471   0.01584   0.00990  -0.1866  0.3587  0.0148  -5.3522   0.0000   0.0000   0.0000  -1.1811
  -8.420  -0.1461   0.01583   0.00988  -0.1865  0.3586  0.0148  -5.3452   0.0000   0.0000   0.0000  -1.1897
  -8.410  -0.1452   0.01582   0.00987  -0.1865  0.3586  0.0148  -5.3382   0.0000   0.0000   0.0000  -1.1985
  -8.400  -0.1442   0.01580   0.00985  -0.1864  0.3586  0.0148  -5.3312   0.0000   0.0000   0.0000  -1.2075
  -8.390  -0.1433   0.01579   0.00984  -0.1864  0.3585  0.0148  -5.3242   0.0000   0.0000   0.0000  -1.2166
  -8.380  -0.1423   0.01578   0.00982  -0.1863  0.3585  0.0148  -5.3171   0.0000   0.0000   0.0000  -1.2258
  -8.370  -0.1414   0.01577   0.00981  -0.1863  0.3584  0.0148  -5.3101   0.0000   0.0000   0.0000  -1.2351
  -8.360  -0.1404   0.01575   0.00980  -0.1862  0.3584  0.0149  -5.3031   0.0000   0.0000   0.0000  -1.2447
  -8.350  -0.1395   0.01574   0.00978  -0.1862  0.3584  0.0149  -5.2960   0.0000   0.0000   0.0000  -1.2543
  -8.340  -0.1385   0.01573   0.00977  -0.1861  0.3583  0.0149  -5.2890   0.0000   0.0000   0.0000  -1.2642
  -8.330  -0.1375   0.01572   0.00975  -0.1861  0.3583  0.0149  -5.2819   0.0000   0.0000   0.0000  -1.2742
  -8.320  -0.1366   0.01571   0.00974  -0.1860  0.3583  0.0149  -5.2749   0.0000   0.0000   0.0000  -1.2843
  -8.310  -0.1356   0.01569   0.00973  -0.1860  0.3582  0.0149  -5.2678   0.0000   0.0000   0.0000  -1.2946
  -8.300  -0.1347   0.01568   0.00971  -0.1860  0.3582  0.0149  -5.2608   0.0000   0.0000   0.0000  -1.3051
  -8.290  -0.1337   0.01567   0.00970  -0.1859  0.3582  0.0149  -5.2537   0.0000   0.0000   0.0000  -1.3158
  -8.280  -0.1327   0.01566   0.00969  -0.1859  0.3581  0.0149  -5.2467   0.0000   0.0000   0.0000  -1.3266
  -8.270  -0.1317   0.01565   0.00967  -0.1858  0.3581  0.0149  -5.2396   0.0000   0.0000   0.0000  -1.3376
  -8.260  -0.1308   0.01563   0.00966  -0.1858  0.3580  0.0149  -5.2326   0.0000   0.0000   0.0000  -1.3488
  -8.250  -0.1298   0.01562   0.00965  -0.1857  0.3580  0.0149  -5.2255   0.0000   0.0000   0.0000  -1.3602
  -8.240  -0.1288   0.01561   0.00963  -0.1857  0.3580  0.0149  -5.2185   0.0000   0.0000   0.0000  -1.3718
  -8.230  -0.1278   0.01560   0.00962  -0.1856  0.3579  0.0149  -5.2114   0.0000   0.0000   0.0000  -1.3836
  -8.220  -0.1269   0.01559   0.00961  -0.1856  0.3579  0.0149  -5.2044   0.0000   0.0000   0.0000  -1.3956
  -8.210  -0.1259   0.01558   0.00960  -0.1856  0.3578  0.0149  -5.1973   0.0000   0.0000   0.0000  -1.4078
  -8.200  -0.1249   0.01557   0.00958  -0.1855  0.3578  0.0149  -5.1903   0.0000   0.0000   0.0000  -1.4202
  -8.190  -0.1239   0.01555   0.00957  -0.1855  0.3578  0.0149  -5.1832   0.0000   0.0000   0.0000  -1.4328
  -8.180  -0.1229   0.01554   0.00956  -0.1854  0.3577  0.0149  -5.1762   0.0000   0.0000   0.0000  -1.4456
  -8.170  -0.1219   0.01553   0.00954  -0.1854  0.3577  0.0149  -5.1691   0.0000   0.0000   0.0000  -1.4587
  -8.160  -0.1210   0.01552   0.00953  -0.1853  0.3576  0.0149  -5.1620   0.0000   0.0000   0.0000  -1.4720
  -8.150  -0.1200   0.01551   0.00952  -0.1853  0.3576  0.0149  -5.1550   0.0000   0.0000   0.0000  -1.4856
  -8.140  -0.1190   0.01550   0.00951  -0.1853  0.3575  0.0149  -5.1479   0.0000   0.0000   0.0000  -1.4993
  -8.130  -0.1180   0.01549   0.00949  -0.1852  0.3575  0.0149  -5.1409   0.0000   0.0000   0.0000  -1.5134
  -8.120  -0.1170   0.01548   0.00948  -0.1852  0.3575  0.0149  -5.1338   0.0000   0.0000   0.0000  -1.5277
  -8.110  -0.1160   0.01547   0.00947  -0.1851  0.3574  0.0149  -5.1268   0.0000   0.0000   0.0000  -1.5422
  -8.100  -0.1150   0.01546   0.00946  -0.1851  0.3574  0.0149  -5.1197   0.0000   0.0000   0.0000  -1.5570
  -8.090  -0.1140   0.01545   0.00945  -0.1850  0.3573  0.0149  -5.1127   0.0000   0.0000   0.0000  -1.5721
  -8.080  -0.1130   0.01544   0.00943  -0.1850  0.3573  0.0149  -5.1056   0.0000   0.0000   0.0000  -1.5875
  -8.070  -0.1120   0.01543   0.00942  -0.1849  0.3572  0.0149  -5.0986   0.0000   0.0000   0.0000  -1.6030
  -8.060  -0.1110   0.01542   0.00941  -0.1849  0.3572  0.0149  -5.0916   0.0000   0.0000   0.0000  -1.6188
  -8.050  -0.1100   0.01541   0.00940  -0.1849  0.3571  0.0149  -5.0846   0.0000   0.0000   0.0000  -1.6349
  -8.040  -0.1091   0.01540   0.00939  -0.1848  0.3571  0.0149  -5.0776   0.0000   0.0000   0.0000  -1.6512
  -8.030  -0.1081   0.01539   0.00938  -0.1848  0.3571  0.0149  -5.0706   0.0000   0.0000   0.0000  -1.6677
  -8.020  -0.1071   0.01538   0.00936  -0.1847  0.3570  0.0149  -5.0636   0.0000   0.0000   0.0000  -1.6846
  -8.010  -0.1061   0.01537   0.00935  -0.1847  0.3570  0.0149  -5.0567   0.0000   0.0000   0.0000  -1.7017
  -8.000  -0.1051   0.01536   0.00934  -0.1846  0.3569  0.0149  -5.0497   0.0000   0.0000   0.0000  -1.7191
  -7.990  -0.1041   0.01535   0.00933  -0.1846  0.3569  0.0149  -5.0427   0.0000   0.0000   0.0000  -1.7368
  -7.980  -0.1032   0.01534   0.00932  -0.1845  0.3568  0.0149  -5.0358   0.0000   0.0000   0.0000  -1.7548
  -7.970  -0.1022   0.01533   0.00931  -0.1845  0.3568  0.0149  -5.0289   0.0000   0.0000   0.0000  -1.7732
  -7.960  -0.1012   0.01532   0.00930  -0.1844  0.3567  0.0149  -5.0219   0.0000   0.0000   0.0000  -1.7919
  -7.950  -0.1002   0.01531   0.00929  -0.1844  0.3567  0.0149  -5.0150   0.0000   0.0000   0.0000  -1.8109
  -7.940  -0.0993   0.01530   0.00928  -0.1843  0.3566  0.0149  -5.0081   0.0000   0.0000   0.0000  -1.8303
  -7.930  -0.0983   0.01529   0.00927  -0.1843  0.3566  0.0149  -5.0012   0.0000   0.0000   0.0000  -1.8501
  -7.920  -0.0973   0.01528   0.00926  -0.1842  0.3565  0.0149  -4.9943   0.0000   0.0000   0.0000  -1.8703
  -7.910  -0.0963   0.01527   0.00924  -0.1842  0.3565  0.0149  -4.9874   0.0000   0.0000   0.0000  -1.8909
  -7.900  -0.0954   0.01526   0.00923  -0.1842  0.3564  0.0149  -4.9805   0.0000   0.0000   0.0000  -1.9119
  -7.890  -0.0944   0.01526   0.00922  -0.1841  0.3564  0.0149  -4.9736   0.0000   0.0000   0.0000  -1.9334
  -7.880  -0.0934   0.01525   0.00921  -0.1841  0.3564  0.0149  -4.9667   0.0000   0.0000   0.0000  -1.9554
  -7.870  -0.0924   0.01524   0.00920  -0.1840  0.3563  0.0150  -4.9598   0.0000   0.0000   0.0000  -1.9778
  -7.860  -0.0915   0.01523   0.00919  -0.1840  0.3563  0.0150  -4.9529   0.0000   0.0000   0.0000  -2.0007
  -7.850  -0.0905   0.01522   0.00918  -0.1839  0.3562  0.0150  -4.9460   0.0000   0.0000   0.0000  -2.0242
  -7.840  -0.0895   0.01521   0.00917  -0.1839  0.3562  0.0150  -4.9391   0.0000   0.0000   0.0000  -2.0482
  -7.830  -0.0885   0.01520   0.00916  -0.1838  0.3561  0.0150  -4.9322   0.0000   0.0000   0.0000  -2.0728
  -7.820  -0.0875   0.01519   0.00915  -0.1838  0.3561  0.0150  -4.9253   0.0000   0.0000   0.0000  -2.0980
  -7.810  -0.0865   0.01519   0.00914  -0.1837  0.3560  0.0150  -4.9184   0.0000   0.0000   0.0000  -2.1238
  -7.800  -0.0856   0.01518   0.00913  -0.1837  0.3560  0.0150  -4.9116   0.0000   0.0000   0.0000  -2.1501
  -7.790  -0.0846   0.01517   0.00912  -0.1836  0.3559  0.0150  -4.9047   0.0000   0.0000   0.0000  -2.1771
  -7.780  -0.0836   0.01516   0.00911  -0.1836  0.3559  0.0150  -4.8978   0.0000   0.0000   0.0000  -2.2048
  -7.770  -0.0826   0.01515   0.00910  -0.1835  0.3558  0.0150  -4.8909   0.0000   0.0000   0.0000  -2.2332
  -7.760  -0.0816   0.01514   0.00909  -0.1835  0.3558  0.0150  -4.8840   0.0000   0.0000   0.0000  -2.2624
  -7.750  -0.0806   0.01514   0.00908  -0.1834  0.3557  0.0150  -4.8771   0.0000   0.0000   0.0000  -2.2923
  -7.740  -0.0796   0.01513   0.00907  -0.1834  0.3557  0.0150  -4.8702   0.0000   0.0000   0.0000  -2.3231
  -7.730  -0.0786   0.01512   0.00906  -0.1834  0.3556  0.0150  -4.8633   0.0000   0.0000   0.0000  -2.3547
  -7.720  -0.0776   0.01511   0.00905  -0.1833  0.3556  0.0150  -4.8564   0.0000   0.0000   0.0000  -2.3872
  -7.710  -0.0766   0.01510   0.00904  -0.1833  0.3555  0.0150  -4.8495   0.0000   0.0000   0.0000  -2.4206
  -7.700  -0.0756   0.01510   0.00904  -0.1832  0.3555  0.0150  -4.8426   0.0000   0.0000   0.0000  -2.4549
  -7.690  -0.0746   0.01509   0.00903  -0.1832  0.3555  0.0150  -4.8357   0.0000   0.0000   0.0000  -2.4903
  -7.680  -0.0736   0.01508   0.00902  -0.1831  0.3554  0.0150  -4.8288   0.0000   0.0000   0.0000  -2.5267
  -7.670  -0.0726   0.01507   0.00901  -0.1831  0.3554  0.0150  -4.8219   0.0000   0.0000   0.0000  -2.5642
  -7.660  -0.0716   0.01506   0.00900  -0.1830  0.3553  0.0150  -4.8150   0.0000   0.0000   0.0000  -2.6029
  -7.650  -0.0706   0.01505   0.00899  -0.1830  0.3553  0.0150  -4.8081   0.0000   0.0000   0.0000  -2.6427
  -7.640  -0.0696   0.01505   0.00898  -0.1829  0.3552  0.0150  -4.8012   0.0000   0.0000   0.0000  -2.6838
  -7.630  -0.0685   0.01504   0.00897  -0.1829  0.3552  0.0150  -4.7943   0.0000   0.0000   0.0000  -2.7262
  -7.620  -0.0675   0.01503   0.00896  -0.1829  0.3551  0.0150  -4.7874   0.0000   0.0000   0.0000  -2.7701
  -7.610  -0.0665   0.01502   0.00895  -0.1828  0.3551  0.0150  -4.7804   0.0000   0.0000   0.0000  -2.8160
  -7.600  -0.0654   0.01501   0.00894  -0.1828  0.3551  0.0150  -4.7735   0.0000   0.0000   0.0000  -2.8635
  -7.590  -0.0644   0.01501   0.00893  -0.1827  0.3550  0.0150  -4.7665   0.0000   0.0000   0.0000  -2.9125
  -7.580  -0.0634   0.01500   0.00892  -0.1827  0.3550  0.0150  -4.7595   0.0000   0.0000   0.0000  -2.9632
  -7.570  -0.0623   0.01499   0.00891  -0.1827  0.3550  0.0150  -4.7526   0.0000   0.0000   0.0000  -3.0157
  -7.560  -0.0613   0.01498   0.00890  -0.1826  0.3550  0.0151  -4.7456   0.0000   0.0000   0.0000  -3.0700
  -7.550  -0.0602   0.01497   0.00889  -0.1826  0.3549  0.0151  -4.7387   0.0000   0.0000   0.0000  -3.1263
  -7.540  -0.0592   0.01497   0.00888  -0.1825  0.3549  0.0151  -4.7317   0.0000   0.0000   0.0000  -3.1846
  -7.530  -0.0581   0.01496   0.00888  -0.1825  0.3549  0.0151  -4.7248   0.0000   0.0000   0.0000  -3.2451
  -7.520  -0.0571   0.01495   0.00887  -0.1825  0.3548  0.0151  -4.7178   0.0000   0.0000   0.0000  -3.3078
  -7.510  -0.0561   0.01494   0.00886  -0.1824  0.3548  0.0151  -4.7109   0.0000   0.0000   0.0000  -3.3730
  -7.500  -0.0550   0.01493   0.00885  -0.1824  0.3548  0.0151  -4.7039   0.0000   0.0000   0.0000  -3.4407
  -7.490  -0.0540   0.01493   0.00884  -0.1823  0.3547  0.0151  -4.6970   0.0000   0.0000   0.0000  -3.5111
  -7.480  -0.0529   0.01492   0.00883  -0.1823  0.3547  0.0151  -4.6900   0.0000   0.0000   0.0000  -3.5844
  -7.470  -0.0519   0.01491   0.00882  -0.1823  0.3547  0.0151  -4.6831   0.0000   0.0000   0.0000  -3.6608
  -7.460  -0.0508   0.01490   0.00881  -0.1822  0.3546  0.0151  -4.6761   0.0000   0.0000   0.0000  -3.7403
  -7.450  -0.0497   0.01489   0.00880  -0.1822  0.3546  0.0151  -4.6692   0.0000   0.0000   0.0000  -3.8234
  -7.440  -0.0487   0.01489   0.00879  -0.1822  0.3546  0.0151  -4.6623   0.0000   0.0000   0.0000  -3.9100
  -7.430  -0.0476   0.01488   0.00879  -0.1821  0.3545  0.0151  -4.6553   0.0000   0.0000   0.0000  -4.0007
  -7.420  -0.0466   0.01487   0.00878  -0.1821  0.3545  0.0151  -4.6484   0.0000   0.0000   0.0000  -4.0954
  -7.410  -0.0455   0.01486   0.00877  -0.1820  0.3545  0.0151  -4.6415   0.0000   0.0000   0.0000  -4.1947
  -7.400  -0.0445   0.01486   0.00876  -0.1820  0.3544  0.0151  -4.6345   0.0000   0.0000   0.0000  -4.2988
  -7.390  -0.0434   0.01485   0.00875  -0.1820  0.3544  0.0151  -4.6276   0.0000   0.0000   0.0000  -4.4080
  -7.380  -0.0424   0.01484   0.00874  -0.1819  0.3544  0.0151  -4.6207   0.0000   0.0000   0.0000  -4.5228
  -7.370  -0.0413   0.01483   0.00873  -0.1819  0.3543  0.0151  -4.6138   0.0000   0.0000   0.0000  -4.6436
  -7.360  -0.0402   0.01483   0.00872  -0.1818  0.3543  0.0152  -4.6069   0.0000   0.0000   0.0000  -4.7709
  -7.350  -0.0392   0.01482   0.00872  -0.1818  0.3543  0.0152  -4.6000   0.0000   0.0000   0.0000  -4.9051
  -7.340  -0.0381   0.01481   0.00871  -0.1818  0.3542  0.0152  -4.5930   0.0000   0.0000   0.0000  -5.0469
  -7.330  -0.0370   0.01480   0.00870  -0.1817  0.3542  0.0152  -4.5861   0.0000   0.0000   0.0000  -5.1970
  -7.320  -0.0360   0.01480   0.00869  -0.1817  0.3542  0.0152  -4.5792   0.0000   0.0000   0.0000  -5.3560
  -7.310  -0.0349   0.01479   0.00868  -0.1817  0.3541  0.0152  -4.5723   0.0000   0.0000   0.0000  -5.5248
  -7.300  -0.0338   0.01478   0.00867  -0.1816  0.3541  0.0152  -4.5654   0.0000   0.0000   0.0000  -5.7044
  -7.290  -0.0328   0.01478   0.00867  -0.1816  0.3541  0.0152  -4.5585   0.0000   0.0000   0.0000  -5.8958
  -7.280  -0.0317   0.01477   0.00866  -0.1815  0.3540  0.0152  -4.5517   0.0000   0.0000   0.0000  -6.1001
  -7.270  -0.0307   0.01476   0.00865  -0.1815  0.3540  0.0152  -4.5448   0.0000   0.0000   0.0000  -6.3188
  -7.260  -0.0296   0.01475   0.00864  -0.1815  0.3540  0.0152  -4.5379   0.0000   0.0000   0.0000  -6.5533
  -7.250  -0.0285   0.01475   0.00863  -0.1814  0.3540  0.0152  -4.5310   0.0000   0.0000   0.0000  -6.8047
  -7.240  -0.0275   0.01474   0.00862  -0.1814  0.3539  0.0152  -4.5242   0.0000   0.0000   0.0000  -7.0751
  -7.230  -0.0264   0.01473   0.00862  -0.1814  0.3539  0.0152  -4.5173   0.0000   0.0000   0.0000  -7.3665
  -7.220  -0.0253   0.01473   0.00861  -0.1813  0.3539  0.0152  -4.5105   0.0000   0.0000   0.0000  -7.6816
  -7.210  -0.0243   0.01472   0.00860  -0.1813  0.3538  0.0152  -4.5037   0.0000   0.0000   0.0000  -8.0234
  -7.200  -0.0232   0.01471   0.00859  -0.1812  0.3538  0.0152  -4.4968   0.0000   0.0000   0.0000  -8.3955
  -7.190  -0.0222   0.01471   0.00859  -0.1812  0.3538  0.0152  -4.4900   0.0000   0.0000   0.0000  -8.8022
  -7.180  -0.0211   0.01470   0.00858  -0.1812  0.3537  0.0153  -4.4833   0.0000   0.0000   0.0000  -9.2484
  -7.170  -0.0201   0.01469   0.00857  -0.1811  0.3537  0.0153  -4.4765   0.0000   0.0000   0.0000  -9.7405
  -7.160  -0.0190   0.01469   0.00856  -0.1811  0.3537  0.0153  -4.4697   0.0000   0.0000   0.0000  -10.2859
  -7.150  -0.0180   0.01468   0.00855  -0.1810  0.3537  0.0153  -4.4629   0.0000   0.0000   0.0000  -10.8937
  -7.140  -0.0169   0.01467   0.00855  -0.1810  0.3536  0.0153  -4.4562   0.0000   0.0000   0.0000  -11.5757
  -7.130  -0.0159   0.01467   0.00854  -0.1810  0.3536  0.0153  -4.4495   0.0000   0.0000   0.0000  -12.3462
  -7.120  -0.0149   0.01466   0.00853  -0.1809  0.3536  0.0153  -4.4427   0.0000   0.0000   0.0000  -13.2238
  -7.110  -0.0138   0.01466   0.00853  -0.1809  0.3535  0.0153  -4.4360   0.0000   0.0000   0.0000  -14.2329
  -7.100  -0.0128   0.01465   0.00852  -0.1808  0.3535  0.0153  -4.4293   0.0000   0.0000   0.0000  -15.4054
  -7.090  -0.0117   0.01464   0.00851  -0.1808  0.3535  0.0153  -4.4226   0.0000   0.0000   0.0000  -16.7850
  -7.080  -0.0107   0.01464   0.00850  -0.1807  0.3535  0.0153  -4.4159   0.0000   0.0000   0.0000  -18.4320
  -7.070  -0.0097   0.01463   0.00850  -0.1807  0.3534  0.0153  -4.4092   0.0000   0.0000   0.0000  -20.4329
  -7.060  -0.0086   0.01463   0.00849  -0.1807  0.3534  0.0153  -4.4025   0.0000   0.0000   0.0000  -22.9159
  -7.050  -0.0076   0.01462   0.00848  -0.1806  0.3534  0.0153  -4.3958   0.0000   0.0000   0.0000  -26.0797
  -7.040  -0.0065   0.01461   0.00848  -0.1806  0.3534  0.0153  -4.3891   0.0000   0.0000   0.0000  -30.2494
  -7.030  -0.0055   0.01461   0.00847  -0.1805  0.3533  0.0153  -4.3824   0.0000   0.0000   0.0000  -35.9964
  -7.020  -0.0045   0.01460   0.00846  -0.1805  0.3533  0.0153  -4.3757   0.0000   0.0000   0.0000  -44.4255
  -7.010  -0.0034   0.01460   0.00845  -0.1805  0.3533  0.0153  -4.3690   0.0000   0.0000   0.0000  -57.9878
  -7.000  -0.0024   0.01459   0.00845  -0.1804  0.3533  0.0154  -4.3624   0.0000   0.0000   0.0000  -83.4292
  -6.990  -0.0013   0.01458   0.00844  -0.1804  0.3532  0.0154  -4.3557   0.0000   0.0000   0.0000  -148.5290
  -6.980  -0.0003   0.01458   0.00843  -0.1803  0.3532  0.0154  -4.3490   0.0000   0.0000   0.0000  -673.8316
  -6.970   0.0007   0.01457   0.00843  -0.1803  0.3532  0.0154  -4.3424   0.0000   0.0000   0.0000  265.9523
  -6.960   0.0018   0.01457   0.00842  -0.1802  0.3532  0.0154  -4.3357   0.0000   0.0000   0.0000  111.1912
  -6.950   0.0028   0.01456   0.00841  -0.1802  0.3532  0.0154  -4.3290   0.0000   0.0000   0.0000  70.3599
  -6.940   0.0039   0.01456   0.00841  -0.1802  0.3531  0.0154  -4.3224   0.0000   0.0000   0.0000  51.4708
  -6.930   0.0049   0.01455   0.00840  -0.1801  0.3531  0.0154  -4.3157   0.0000   0.0000   0.0000  40.5823
  -6.920   0.0060   0.01454   0.00839  -0.1801  0.3531  0.0154  -4.3091   0.0000   0.0000   0.0000  33.4995
  -6.910   0.0070   0.01454   0.00839  -0.1800  0.3531  0.0154  -4.3024   0.0000   0.0000   0.0000  28.5238
  -6.900   0.0081   0.01453   0.00838  -0.1800  0.3531  0.0154  -4.2958   0.0000   0.0000   0.0000  24.8367
  -6.890   0.0091   0.01453   0.00837  -0.1800  0.3531  0.0154  -4.2891   0.0000   0.0000   0.0000  21.9950
  -6.880   0.0102   0.01452   0.00837  -0.1799  0.3530  0.0154  -4.2825   0.0000   0.0000   0.0000  19.7377
  -6.870   0.0112   0.01452   0.00836  -0.1799  0.3530  0.0154  -4.2759   0.0000   0.0000   0.0000  17.9014
  -6.860   0.0123   0.01451   0.00835  -0.1798  0.3530  0.0154  -4.2692   0.0000   0.0000   0.0000  16.3784
  -6.850   0.0134   0.01450   0.00835  -0.1798  0.3530  0.0154  -4.2626   0.0000   0.0000   0.0000  15.0947
  -6.840   0.0144   0.01450   0.00834  -0.1798  0.3530  0.0154  -4.2559   0.0000   0.0000   0.0000  13.9981
  -6.830   0.0155   0.01449   0.00833  -0.1797  0.3530  0.0154  -4.2493   0.0000   0.0000   0.0000  13.0507
  -6.820   0.0165   0.01449   0.00833  -0.1797  0.3530  0.0154  -4.2427   0.0000   0.0000   0.0000  12.2242
  -6.810   0.0176   0.01448   0.00832  -0.1796  0.3529  0.0155  -4.2360   0.0000   0.0000   0.0000  11.4968
  -6.800   0.0187   0.01448   0.00832  -0.1796  0.3529  0.0155  -4.2294   0.0000   0.0000   0.0000  10.8516
  -6.790   0.0197   0.01447   0.00831  -0.1796  0.3529  0.0155  -4.2228   0.0000   0.0000   0.0000  10.2756
  -6.780   0.0208   0.01447   0.00830  -0.1795  0.3529  0.0155  -4.2161   0.0000   0.0000   0.0000   9.7582
  -6.770   0.0219   0.01446   0.00830  -0.1795  0.3529  0.0155  -4.2095   0.0000   0.0000   0.0000   9.2908
  -6.760   0.0229   0.01445   0.00829  -0.1794  0.3529  0.0155  -4.2029   0.0000   0.0000   0.0000   8.8666
  -6.750   0.0240   0.01445   0.00828  -0.1794  0.3529  0.0155  -4.1963   0.0000   0.0000   0.0000   8.4798
  -6.740   0.0251   0.01444   0.00828  -0.1794  0.3529  0.0155  -4.1896   0.0000   0.0000   0.0000   8.1257
  -6.730   0.0261   0.01444   0.00827  -0.1793  0.3529  0.0155  -4.1830   0.0000   0.0000   0.0000   7.8004
  -6.720   0.0272   0.01443   0.00826  -0.1793  0.3528  0.0155  -4.1764   0.0000   0.0000   0.0000   7.5004
  -6.710   0.0283   0.01443   0.00826  -0.1793  0.3528  0.0155  -4.1698   0.0000   0.0000   0.0000   7.2232
  -6.700   0.0293   0.01442   0.00825  -0.1792  0.3528  0.0155  -4.1632   0.0000   0.0000   0.0000   6.9661
  -6.690   0.0304   0.01442   0.00825  -0.1792  0.3528  0.0155  -4.1566   0.0000   0.0000   0.0000   6.7269
  -6.680   0.0315   0.01441   0.00824  -0.1791  0.3528  0.0155  -4.1500   0.0000   0.0000   0.0000   6.5039
  -6.670   0.0326   0.01441   0.00823  -0.1791  0.3528  0.0155  -4.1433   0.0000   0.0000   0.0000   6.2954
  -6.660   0.0336   0.01440   0.00823  -0.1791  0.3528  0.0155  -4.1367   0.0000   0.0000   0.0000   6.1002
  -6.650   0.0347   0.01440   0.00822  -0.1790  0.3528  0.0155  -4.1301   0.0000   0.0000   0.0000   5.9169
  -6.640   0.0358   0.01439   0.00822  -0.1790  0.3527  0.0155  -4.1235   0.0000   0.0000   0.0000   5.7445
  -6.630   0.0369   0.01439   0.00821  -0.1790  0.3527  0.0156  -4.1169   0.0000   0.0000   0.0000   5.5821
  -6.620   0.0379   0.01438   0.00820  -0.1789  0.3527  0.0156  -4.1103   0.0000   0.0000   0.0000   5.4288
  -6.610   0.0390   0.01437   0.00820  -0.1789  0.3527  0.0156  -4.1038   0.0000   0.0000   0.0000   5.2839
  -6.600   0.0401   0.01437   0.00819  -0.1789  0.3527  0.0156  -4.0972   0.0000   0.0000   0.0000   5.1467
  -6.590   0.0412   0.01436   0.00819  -0.1788  0.3527  0.0156  -4.0906   0.0000   0.0000   0.0000   5.0167
  -6.580   0.0423   0.01436   0.00818  -0.1788  0.3527  0.0156  -4.0840   0.0000   0.0000   0.0000   4.8932
  -6.570   0.0433   0.01435   0.00817  -0.1787  0.3527  0.0156  -4.0774   0.0000   0.0000   0.0000   4.7758
  -6.560   0.0444   0.01435   0.00817  -0.1787  0.3526  0.0156  -4.0709   0.0000   0.0000   0.0000   4.6640
  -6.550   0.0455   0.01434   0.00816  -0.1787  0.3526  0.0156  -4.0643   0.0000   0.0000   0.0000   4.5576
  -6.540   0.0466   0.01434   0.00816  -0.1786  0.3526  0.0156  -4.0577   0.0000   0.0000   0.0000   4.4561
  -6.530   0.0477   0.01433   0.00815  -0.1786  0.3526  0.0156  -4.0512   0.0000   0.0000   0.0000   4.3591
  -6.520   0.0488   0.01433   0.00814  -0.1786  0.3526  0.0156  -4.0446   0.0000   0.0000   0.0000   4.2664
  -6.510   0.0498   0.01432   0.00814  -0.1785  0.3526  0.0156  -4.0381   0.0000   0.0000   0.0000   4.1777
  -6.500   0.0509   0.01432   0.00813  -0.1785  0.3526  0.0156  -4.0315   0.0000   0.0000   0.0000   4.0927
  -6.490   0.0520   0.01431   0.00813  -0.1785  0.3526  0.0156  -4.0250   0.0000   0.0000   0.0000   4.0112
  -6.480   0.0531   0.01431   0.00812  -0.1784  0.3525  0.0156  -4.0185   0.0000   0.0000   0.0000   3.9331
  -6.470   0.0542   0.01430   0.00812  -0.1784  0.3525  0.0156  -4.0119   0.0000   0.0000   0.0000   3.8580
  -6.460   0.0553   0.01430   0.00811  -0.1784  0.3525  0.0157  -4.0054   0.0000   0.0000   0.0000   3.7859
  -6.450   0.0563   0.01429   0.00810  -0.1783  0.3525  0.0157  -3.9989   0.0000   0.0000   0.0000   3.7165
  -6.440   0.0574   0.01429   0.00810  -0.1783  0.3525  0.0157  -3.9924   0.0000   0.0000   0.0000   3.6498
  -6.430   0.0585   0.01429   0.00809  -0.1782  0.3525  0.0157  -3.9858   0.0000   0.0000   0.0000   3.5855
  -6.420   0.0596   0.01428   0.00809  -0.1782  0.3525  0.0157  -3.9793   0.0000   0.0000   0.0000   3.5235
  -6.410   0.0607   0.01428   0.00808  -0.1782  0.3525  0.0157  -3.9728   0.0000   0.0000   0.0000   3.4637
  -6.400   0.0618   0.01427   0.00808  -0.1781  0.3524  0.0157  -3.9663   0.0000   0.0000   0.0000   3.4060
  -6.390   0.0629   0.01427   0.00807  -0.1781  0.3524  0.0157  -3.9598   0.0000   0.0000   0.0000   3.3503
  -6.380   0.0640   0.01426   0.00807  -0.1781  0.3524  0.0157  -3.9534   0.0000   0.0000   0.0000   3.2965
  -6.370   0.0650   0.01426   0.00806  -0.1780  0.3524  0.0157  -3.9469   0.0000   0.0000   0.0000   3.2445
  -6.360   0.0661   0.01425   0.00806  -0.1780  0.3524  0.0157  -3.9404   0.0000   0.0000   0.0000   3.1942
  -6.350   0.0672   0.01425   0.00805  -0.1780  0.3524  0.0157  -3.9339   0.0000   0.0000   0.0000   3.1455
  -6.340   0.0683   0.01424   0.00805  -0.1779  0.3524  0.0157  -3.9275   0.0000   0.0000   0.0000   3.0983
  -6.330   0.0694   0.01424   0.00804  -0.1779  0.3524  0.0157  -3.9210   0.0000   0.0000   0.0000   3.0526
  -6.320   0.0705   0.01424   0.00803  -0.1779  0.3523  0.0157  -3.9145   0.0000   0.0000   0.0000   3.0084
  -6.310   0.0716   0.01423   0.00803  -0.1778  0.3523  0.0157  -3.9081   0.0000   0.0000   0.0000   2.9654
  -6.300   0.0727   0.01423   0.00802  -0.1778  0.3523  0.0157  -3.9016   0.0000   0.0000   0.0000   2.9238
  -6.290   0.0738   0.01422   0.00802  -0.1778  0.3523  0.0157  -3.8952   0.0000   0.0000   0.0000   2.8833
  -6.280   0.0748   0.01422   0.00801  -0.1777  0.3523  0.0157  -3.8888   0.0000   0.0000   0.0000   2.8441
  -6.270   0.0759   0.01421   0.00801  -0.1777  0.3523  0.0158  -3.8823   0.0000   0.0000   0.0000   2.8059
  -6.260   0.0770   0.01421   0.00800  -0.1777  0.3523  0.0158  -3.8759   0.0000   0.0000   0.0000   2.7689
  -6.250   0.0781   0.01421   0.00800  -0.1776  0.3523  0.0158  -3.8695   0.0000   0.0000   0.0000   2.7329
  -6.240   0.0792   0.01420   0.00799  -0.1776  0.3522  0.0158  -3.8631   0.0000   0.0000   0.0000   2.6980
  -6.230   0.0803   0.01420   0.00799  -0.1775  0.3522  0.0158  -3.8567   0.0000   0.0000   0.0000   2.6641
  -6.220   0.0814   0.01419   0.00798  -0.1775  0.3522  0.0158  -3.8503   0.0000   0.0000   0.0000   2.6312
  -6.210   0.0824   0.01419   0.00798  -0.1775  0.3522  0.0158  -3.8440   0.0000   0.0000   0.0000   2.5993
  -6.200   0.0835   0.01419   0.00798  -0.1774  0.3522  0.0158  -3.8376   0.0000   0.0000   0.0000   2.5682
  -6.190   0.0846   0.01418   0.00797  -0.1774  0.3522  0.0158  -3.8313   0.0000   0.0000   0.0000   2.5380
  -6.180   0.0857   0.01418   0.00797  -0.1774  0.3522  0.0158  -3.8250   0.0000   0.0000   0.0000   2.5086
  -6.170   0.0867   0.01417   0.00796  -0.1773  0.3522  0.0158  -3.8187   0.0000   0.0000   0.0000   2.4800
  -6.160   0.0878   0.01417   0.00796  -0.1773  0.3521  0.0158  -3.8124   0.0000   0.0000   0.0000   2.4522
  -6.150   0.0888   0.01417   0.00795  -0.1772  0.3521  0.0158  -3.8061   0.0000   0.0000   0.0000   2.4251
  -6.140   0.0899   0.01416   0.00795  -0.1772  0.3521  0.0158  -3.7998   0.0000   0.0000   0.0000   2.3987
  -6.130   0.0910   0.01416   0.00795  -0.1772  0.3521  0.0158  -3.7935   0.0000   0.0000   0.0000   2.3729
  -6.120   0.0920   0.01416   0.00794  -0.1771  0.3521  0.0158  -3.7873   0.0000   0.0000   0.0000   2.3478
  -6.110   0.0931   0.01415   0.00794  -0.1771  0.3521  0.0158  -3.7810   0.0000   0.0000   0.0000   2.3232
  -6.100   0.0941   0.01415   0.00793  -0.1770  0.3521  0.0158  -3.7748   0.0000   0.0000   0.0000   2.2993
  -6.090   0.0952   0.01415   0.00793  -0.1770  0.3520  0.0158  -3.7686   0.0000   0.0000   0.0000   2.2759
  -6.080   0.0962   0.01414   0.00793  -0.1770  0.3520  0.0158  -3.7624   0.0000   0.0000   0.0000   2.2530
  -6.070   0.0973   0.01414   0.00792  -0.1769  0.3520  0.0158  -3.7562   0.0000   0.0000   0.0000   2.2307
  -6.060   0.0983   0.01414   0.00792  -0.1769  0.3520  0.0158  -3.7500   0.0000   0.0000   0.0000   2.2088
  -6.050   0.0994   0.01413   0.00791  -0.1768  0.3520  0.0158  -3.7438   0.0000   0.0000   0.0000   2.1875
  -6.040   0.1004   0.01413   0.00791  -0.1768  0.3520  0.0158  -3.7376   0.0000   0.0000   0.0000   2.1665
  -6.030   0.1014   0.01413   0.00791  -0.1768  0.3520  0.0158  -3.7314   0.0000   0.0000   0.0000   2.1461
  -6.020   0.1025   0.01413   0.00790  -0.1767  0.3520  0.0158  -3.7252   0.0000   0.0000   0.0000   2.1260
  -6.010   0.1035   0.01412   0.00790  -0.1767  0.3519  0.0159  -3.7190   0.0000   0.0000   0.0000   2.1063
  -6.000   0.1046   0.01412   0.00790  -0.1766  0.3519  0.0159  -3.7129   0.0000   0.0000   0.0000   2.0871
  -5.990   0.1056   0.01412   0.00789  -0.1766  0.3519  0.0159  -3.7067   0.0000   0.0000   0.0000   2.0682
  -5.980   0.1067   0.01411   0.00789  -0.1765  0.3519  0.0159  -3.7005   0.0000   0.0000   0.0000   2.0497
  -5.970   0.1077   0.01411   0.00788  -0.1765  0.3519  0.0159  -3.6944   0.0000   0.0000   0.0000   2.0315
  -5.960   0.1088   0.01411   0.00788  -0.1765  0.3519  0.0159  -3.6882   0.0000   0.0000   0.0000   2.0137
  -5.950   0.1098   0.01410   0.00788  -0.1764  0.3519  0.0159  -3.6821   0.0000   0.0000   0.0000   1.9963
  -5.940   0.1108   0.01410   0.00787  -0.1764  0.3519  0.0159  -3.6760   0.0000   0.0000   0.0000   1.9791
  -5.930   0.1119   0.01410   0.00787  -0.1763  0.3518  0.0159  -3.6698   0.0000   0.0000   0.0000   1.9623
  -5.920   0.1129   0.01410   0.00787  -0.1763  0.3518  0.0159  -3.6637   0.0000   0.0000   0.0000   1.9458
  -5.910   0.1140   0.01409   0.00786  -0.1763  0.3518  0.0159  -3.6576   0.0000   0.0000   0.0000   1.9296
  -5.900   0.1150   0.01409   0.00786  -0.1762  0.3518  0.0159  -3.6515   0.0000   0.0000   0.0000   1.9137
  -5.890   0.1161   0.01409   0.00786  -0.1762  0.3518  0.0159  -3.6453   0.0000   0.0000   0.0000   1.8980
  -5.880   0.1171   0.01409   0.00785  -0.1761  0.3518  0.0159  -3.6392   0.0000   0.0000   0.0000   1.8826
  -5.870   0.1182   0.01408   0.00785  -0.1761  0.3518  0.0159  -3.6331   0.0000   0.0000   0.0000   1.8675
  -5.860   0.1192   0.01408   0.00785  -0.1760  0.3517  0.0159  -3.6270   0.0000   0.0000   0.0000   1.8526
  -5.850   0.1203   0.01408   0.00784  -0.1760  0.3517  0.0159  -3.6209   0.0000   0.0000   0.0000   1.8380
  -5.840   0.1213   0.01407   0.00784  -0.1760  0.3517  0.0159  -3.6148   0.0000   0.0000   0.0000   1.8236
  -5.830   0.1224   0.01407   0.00784  -0.1759  0.3517  0.0159  -3.6087   0.0000   0.0000   0.0000   1.8095
  -5.820   0.1234   0.01407   0.00783  -0.1759  0.3517  0.0159  -3.6026   0.0000   0.0000   0.0000   1.7956
  -5.810   0.1245   0.01407   0.00783  -0.1758  0.3517  0.0159  -3.5965   0.0000   0.0000   0.0000   1.7819
  -5.800   0.1255   0.01406   0.00783  -0.1758  0.3517  0.0159  -3.5904   0.0000   0.0000   0.0000   1.7684
  -5.790   0.1266   0.01406   0.00782  -0.1758  0.3517  0.0159  -3.5843   0.0000   0.0000   0.0000   1.7552
  -5.780   0.1276   0.01406   0.00782  -0.1757  0.3516  0.0159  -3.5782   0.0000   0.0000   0.0000   1.7422
  -5.770   0.1287   0.01406   0.00782  -0.1757  0.3516  0.0160  -3.5721   0.0000   0.0000   0.0000   1.7293
  -5.760   0.1298   0.01405   0.00781  -0.1757  0.3516  0.0160  -3.5660   0.0000   0.0000   0.0000   1.7167
  -5.750   0.1308   0.01405   0.00781  -0.1756  0.3516  0.0160  -3.5599   0.0000   0.0000   0.0000   1.7043
  -5.740   0.1319   0.01405   0.00781  -0.1756  0.3516  0.0160  -3.5539   0.0000   0.0000   0.0000   1.6920
  -5.730   0.1329   0.01405   0.00780  -0.1755  0.3516  0.0160  -3.5478   0.0000   0.0000   0.0000   1.6800
  -5.720   0.1340   0.01404   0.00780  -0.1755  0.3516  0.0160  -3.5417   0.0000   0.0000   0.0000   1.6681
  -5.710   0.1351   0.01404   0.00780  -0.1755  0.3515  0.0160  -3.5356   0.0000   0.0000   0.0000   1.6564
  -5.700   0.1361   0.01404   0.00780  -0.1754  0.3515  0.0160  -3.5296   0.0000   0.0000   0.0000   1.6449
  -5.690   0.1372   0.01404   0.00779  -0.1754  0.3515  0.0160  -3.5235   0.0000   0.0000   0.0000   1.6336
  -5.680   0.1383   0.01403   0.00779  -0.1753  0.3515  0.0160  -3.5174   0.0000   0.0000   0.0000   1.6224
  -5.670   0.1393   0.01403   0.00779  -0.1753  0.3515  0.0160  -3.5114   0.0000   0.0000   0.0000   1.6114
  -5.660   0.1404   0.01403   0.00778  -0.1753  0.3515  0.0160  -3.5053   0.0000   0.0000   0.0000   1.6005
  -5.650   0.1415   0.01403   0.00778  -0.1752  0.3515  0.0160  -3.4993   0.0000   0.0000   0.0000   1.5899
  -5.640   0.1425   0.01402   0.00778  -0.1752  0.3514  0.0160  -3.4932   0.0000   0.0000   0.0000   1.5793
  -5.630   0.1436   0.01402   0.00777  -0.1752  0.3514  0.0160  -3.4872   0.0000   0.0000   0.0000   1.5690
  -5.620   0.1447   0.01402   0.00777  -0.1751  0.3514  0.0160  -3.4811   0.0000   0.0000   0.0000   1.5587
  -5.610   0.1457   0.01402   0.00777  -0.1751  0.3514  0.0160  -3.4751   0.0000   0.0000   0.0000   1.5486
  -5.600   0.1468   0.01401   0.00776  -0.1750  0.3514  0.0160  -3.4691   0.0000   0.0000   0.0000   1.5387
  -5.590   0.1479   0.01401   0.00776  -0.1750  0.3514  0.0160  -3.4631   0.0000   0.0000   0.0000   1.5289
  -5.580   0.1489   0.01401   0.00776  -0.1750  0.3514  0.0160  -3.4570   0.0000   0.0000   0.0000   1.5192
  -5.570   0.1500   0.01401   0.00776  -0.1749  0.3514  0.0160  -3.4510   0.0000   0.0000   0.0000   1.5097
  -5.560   0.1511   0.01401   0.00775  -0.1749  0.3513  0.0160  -3.4450   0.0000   0.0000   0.0000   1.5003
  -5.550   0.1521   0.01400   0.00775  -0.1749  0.3513  0.0160  -3.4390   0.0000   0.0000   0.0000   1.4911
  -5.540   0.1532   0.01400   0.00775  -0.1748  0.3513  0.0161  -3.4330   0.0000   0.0000   0.0000   1.4819
  -5.530   0.1543   0.01400   0.00774  -0.1748  0.3513  0.0161  -3.4270   0.0000   0.0000   0.0000   1.4729
  -5.520   0.1554   0.01400   0.00774  -0.1747  0.3513  0.0161  -3.4210   0.0000   0.0000   0.0000   1.4640
  -5.510   0.1564   0.01399   0.00774  -0.1747  0.3513  0.0161  -3.4150   0.0000   0.0000   0.0000   1.4552
  -5.500   0.1575   0.01399   0.00774  -0.1747  0.3513  0.0161  -3.4090   0.0000   0.0000   0.0000   1.4466
  -5.490   0.1586   0.01399   0.00773  -0.1746  0.3512  0.0161  -3.4030   0.0000   0.0000   0.0000   1.4381
  -5.480   0.1596   0.01399   0.00773  -0.1746  0.3512  0.0161  -3.3970   0.0000   0.0000   0.0000   1.4296
  -5.470   0.1607   0.01399   0.00773  -0.1746  0.3512  0.0161  -3.3910   0.0000   0.0000   0.0000   1.4213
  -5.460   0.1618   0.01398   0.00773  -0.1745  0.3512  0.0161  -3.3851   0.0000   0.0000   0.0000   1.4131
  -5.450   0.1629   0.01398   0.00772  -0.1745  0.3512  0.0161  -3.3791   0.0000   0.0000   0.0000   1.4050
  -5.440   0.1639   0.01398   0.00772  -0.1745  0.3512  0.0161  -3.3731   0.0000   0.0000   0.0000   1.3970
  -5.430   0.1650   0.01398   0.00772  -0.1744  0.3512  0.0161  -3.3672   0.0000   0.0000   0.0000   1.3891
  -5.420   0.1661   0.01398   0.00772  -0.1744  0.3511  0.0161  -3.3612   0.0000   0.0000   0.0000   1.3813
  -5.410   0.1672   0.01397   0.00771  -0.1743  0.3511  0.0161  -3.3553   0.0000   0.0000   0.0000   1.3737
  -5.400   0.1682   0.01397   0.00771  -0.1743  0.3511  0.0161  -3.3493   0.0000   0.0000   0.0000   1.3661
  -5.390   0.1693   0.01397   0.00771  -0.1743  0.3511  0.0161  -3.3434   0.0000   0.0000   0.0000   1.3586
  -5.380   0.1704   0.01397   0.00771  -0.1742  0.3511  0.0161  -3.3374   0.0000   0.0000   0.0000   1.3512
  -5.370   0.1715   0.01397   0.00770  -0.1742  0.3511  0.0161  -3.3315   0.0000   0.0000   0.0000   1.3439
  -5.360   0.1725   0.01396   0.00770  -0.1742  0.3511  0.0161  -3.3256   0.0000   0.0000   0.0000   1.3366
  -5.350   0.1736   0.01396   0.00770  -0.1741  0.3510  0.0161  -3.3196   0.0000   0.0000   0.0000   1.3295
  -5.340   0.1747   0.01396   0.00770  -0.1741  0.3510  0.0161  -3.3137   0.0000   0.0000   0.0000   1.3225
  -5.330   0.1758   0.01396   0.00769  -0.1741  0.3510  0.0162  -3.3078   0.0000   0.0000   0.0000   1.3155
  -5.320   0.1768   0.01396   0.00769  -0.1740  0.3510  0.0162  -3.3019   0.0000   0.0000   0.0000   1.3086
  -5.310   0.1779   0.01396   0.00769  -0.1740  0.3510  0.0162  -3.2960   0.0000   0.0000   0.0000   1.3018
  -5.300   0.1790   0.01395   0.00769  -0.1739  0.3510  0.0162  -3.2901   0.0000   0.0000   0.0000   1.2951
  -5.290   0.1801   0.01395   0.00768  -0.1739  0.3510  0.0162  -3.2842   0.0000   0.0000   0.0000   1.2885
  -5.280   0.1811   0.01395   0.00768  -0.1739  0.3509  0.0162  -3.2783   0.0000   0.0000   0.0000   1.2820
  -5.270   0.1822   0.01395   0.00768  -0.1738  0.3509  0.0162  -3.2724   0.0000   0.0000   0.0000   1.2755
  -5.260   0.1833   0.01395   0.00768  -0.1738  0.3509  0.0162  -3.2666   0.0000   0.0000   0.0000   1.2691
  -5.250   0.1844   0.01395   0.00768  -0.1738  0.3509  0.0162  -3.2607   0.0000   0.0000   0.0000   1.2628
  -5.240   0.1854   0.01394   0.00767  -0.1737  0.3509  0.0162  -3.2548   0.0000   0.0000   0.0000   1.2565
  -5.230   0.1865   0.01394   0.00767  -0.1737  0.3509  0.0162  -3.2490   0.0000   0.0000   0.0000   1.2504
  -5.220   0.1876   0.01394   0.00767  -0.1737  0.3509  0.0162  -3.2432   0.0000   0.0000   0.0000   1.2443
  -5.210   0.1886   0.01394   0.00767  -0.1736  0.3508  0.0162  -3.2373   0.0000   0.0000   0.0000   1.2384
  -5.200   0.1897   0.01394   0.00767  -0.1736  0.3508  0.0162  -3.2315   0.0000   0.0000   0.0000   1.2325
  -5.190   0.1907   0.01394   0.00766  -0.1735  0.3508  0.0162  -3.2257   0.0000   0.0000   0.0000   1.2267
  -5.180   0.1918   0.01394   0.00766  -0.1735  0.3508  0.0162  -3.2199   0.0000   0.0000   0.0000   1.2209
  -5.170   0.1928   0.01393   0.00766  -0.1735  0.3508  0.0162  -3.2142   0.0000   0.0000   0.0000   1.2153
  -5.160   0.1939   0.01393   0.00766  -0.1734  0.3508  0.0162  -3.2084   0.0000   0.0000   0.0000   1.2097
  -5.150   0.1949   0.01393   0.00766  -0.1734  0.3508  0.0162  -3.2027   0.0000   0.0000   0.0000   1.2042
  -5.140   0.1960   0.01393   0.00766  -0.1733  0.3507  0.0162  -3.1970   0.0000   0.0000   0.0000   1.1987
  -5.130   0.1970   0.01393   0.00766  -0.1733  0.3507  0.0162  -3.1912   0.0000   0.0000   0.0000   1.1933
  -5.120   0.1980   0.01393   0.00765  -0.1733  0.3507  0.0163  -3.1855   0.0000   0.0000   0.0000   1.1880
  -5.110   0.1991   0.01393   0.00765  -0.1732  0.3507  0.0163  -3.1798   0.0000   0.0000   0.0000   1.1828
  -5.100   0.2001   0.01393   0.00765  -0.1732  0.3507  0.0163  -3.1742   0.0000   0.0000   0.0000   1.1776
  -5.090   0.2011   0.01393   0.00765  -0.1731  0.3507  0.0163  -3.1687   0.0000   0.0000   0.0000   1.1725
  -5.080   0.2021   0.01393   0.00765  -0.1731  0.3507  0.0163  -3.1632   0.0000   0.0000   0.0000   1.1674
  -5.070   0.2032   0.01393   0.00765  -0.1730  0.3506  0.0163  -3.1578   0.0000   0.0000   0.0000   1.1624
  -5.060   0.2042   0.01393   0.00765  -0.1730  0.3506  0.0163  -3.1523   0.0000   0.0000   0.0000   1.1575
  -5.050   0.2052   0.01393   0.00765  -0.1730  0.3506  0.0163  -3.1469   0.0000   0.0000   0.0000   1.1526
  -5.040   0.2062   0.01393   0.00765  -0.1729  0.3506  0.0163  -3.1414   0.0000   0.0000   0.0000   1.1477
  -5.030   0.2073   0.01393   0.00765  -0.1729  0.3506  0.0163  -3.1360   0.0000   0.0000   0.0000   1.1429
  -5.020   0.2083   0.01393   0.00764  -0.1728  0.3506  0.0163  -3.1306   0.0000   0.0000   0.0000   1.1382
  -5.010   0.2093   0.01393   0.00764  -0.1728  0.3506  0.0163  -3.1251   0.0000   0.0000   0.0000   1.1335
  -5.000   0.2103   0.01392   0.00764  -0.1727  0.3505  0.0163  -3.1197   0.0000   0.0000   0.0000   1.1288
  -4.990   0.2113   0.01392   0.00764  -0.1727  0.3505  0.0163  -3.1143   0.0000   0.0000   0.0000   1.1242
  -4.980   0.2124   0.01392   0.00764  -0.1727  0.3505  0.0163  -3.1089   0.0000   0.0000   0.0000   1.1197
  -4.970   0.2134   0.01392   0.00764  -0.1726  0.3505  0.0163  -3.1035   0.0000   0.0000   0.0000   1.1151
  -4.960   0.2144   0.01392   0.00764  -0.1726  0.3505  0.0163  -3.0981   0.0000   0.0000   0.0000   1.1107
  -4.950   0.2154   0.01392   0.00764  -0.1725  0.3505  0.0163  -3.0927   0.0000   0.0000   0.0000   1.1062
  -4.940   0.2164   0.01392   0.00764  -0.1725  0.3505  0.0163  -3.0873   0.0000   0.0000   0.0000   1.1018
  -4.930   0.2175   0.01392   0.00764  -0.1724  0.3504  0.0163  -3.0820   0.0000   0.0000   0.0000   1.0975
  -4.920   0.2185   0.01392   0.00764  -0.1724  0.3504  0.0164  -3.0766   0.0000   0.0000   0.0000   1.0932
  -4.910   0.2195   0.01392   0.00764  -0.1724  0.3504  0.0164  -3.0712   0.0000   0.0000   0.0000   1.0889
  -4.900   0.2205   0.01392   0.00764  -0.1723  0.3504  0.0164  -3.0658   0.0000   0.0000   0.0000   1.0847
  -4.890   0.2215   0.01392   0.00764  -0.1723  0.3504  0.0164  -3.0604   0.0000   0.0000   0.0000   1.0805
  -4.880   0.2226   0.01392   0.00763  -0.1722  0.3504  0.0164  -3.0551   0.0000   0.0000   0.0000   1.0763
  -4.870   0.2236   0.01392   0.00763  -0.1722  0.3504  0.0164  -3.0497   0.0000   0.0000   0.0000   1.0722
  -4.860   0.2246   0.01392   0.00763  -0.1721  0.3503  0.0164  -3.0443   0.0000   0.0000   0.0000   1.0681
  -4.850   0.2257   0.01392   0.00763  -0.1721  0.3503  0.0164  -3.0390   0.0000   0.0000   0.0000   1.0640
  -4.840   0.2267   0.01392   0.00763  -0.1721  0.3503  0.0164  -3.0336   0.0000   0.0000   0.0000   1.0600
  -4.830   0.2277   0.01392   0.00763  -0.1720  0.3503  0.0164  -3.0282   0.0000   0.0000   0.0000   1.0560
  -4.820   0.2287   0.01392   0.00763  -0.1720  0.3503  0.0164  -3.0229   0.0000   0.0000   0.0000   1.0520
  -4.810   0.2298   0.01392   0.00763  -0.1719  0.3503  0.0164  -3.0175   0.0000   0.0000   0.0000   1.0481
  -4.800   0.2308   0.01392   0.00763  -0.1719  0.3503  0.0164  -3.0122   0.0000   0.0000   0.0000   1.0442
  -4.790   0.2318   0.01392   0.00763  -0.1718  0.3502  0.0164  -3.0068   0.0000   0.0000   0.0000   1.0404
  -4.780   0.2329   0.01392   0.00763  -0.1718  0.3502  0.0164  -3.0015   0.0000   0.0000   0.0000   1.0365
  -4.770   0.2339   0.01392   0.00763  -0.1718  0.3502  0.0164  -2.9961   0.0000   0.0000   0.0000   1.0327
  -4.760   0.2349   0.01392   0.00763  -0.1717  0.3502  0.0164  -2.9908   0.0000   0.0000   0.0000   1.0290
  -4.750   0.2360   0.01392   0.00763  -0.1717  0.3502  0.0164  -2.9854   0.0000   0.0000   0.0000   1.0252
  -4.740   0.2370   0.01392   0.00763  -0.1716  0.3502  0.0164  -2.9801   0.0000   0.0000   0.0000   1.0215
  -4.730   0.2381   0.01392   0.00763  -0.1716  0.3501  0.0164  -2.9747   0.0000   0.0000   0.0000   1.0178
  -4.720   0.2391   0.01392   0.00763  -0.1716  0.3501  0.0165  -2.9694   0.0000   0.0000   0.0000   1.0142
  -4.710   0.2401   0.01392   0.00763  -0.1715  0.3501  0.0165  -2.9641   0.0000   0.0000   0.0000   1.0106
  -4.700   0.2412   0.01392   0.00763  -0.1715  0.3501  0.0165  -2.9587   0.0000   0.0000   0.0000   1.0070
  -4.690   0.2422   0.01392   0.00763  -0.1714  0.3501  0.0165  -2.9534   0.0000   0.0000   0.0000   1.0034
  -4.680   0.2433   0.01392   0.00762  -0.1714  0.3501  0.0165  -2.9481   0.0000   0.0000   0.0000   0.9999
  -4.670   0.2443   0.01392   0.00762  -0.1714  0.3501  0.0165  -2.9428   0.0000   0.0000   0.0000   0.9964
  -4.660   0.2453   0.01392   0.00762  -0.1713  0.3500  0.0165  -2.9375   0.0000   0.0000   0.0000   0.9929
  -4.650   0.2464   0.01392   0.00762  -0.1713  0.3500  0.0165  -2.9321   0.0000   0.0000   0.0000   0.9895
[...]
  -1.840   0.5255   0.01490   0.00855  -0.1593  0.3458  0.0180  -2.1404   0.0000   0.0000   0.0000   0.5552
  -1.830   0.5265   0.01491   0.00856  -0.1593  0.3458  0.0180  -2.1414   0.0000   0.0000   0.0000   0.5545
  -1.820   0.5274   0.01491   0.00857  -0.1592  0.3458  0.0180  -2.1425   0.0000   0.0000   0.0000   0.5538
  -1.810   0.5283   0.01492   0.00857  -0.1592  0.3458  0.0180  -2.1435   0.0000   0.0000   0.0000   0.5531
  -1.800   0.5293   0.01493   0.00858  -0.1592  0.3458  0.0181  -2.1446   0.0000   0.0000   0.0000   0.5524
  -1.790   0.5302   0.01493   0.00859  -0.1591  0.3458  0.0181  -2.1456   0.0000   0.0000   0.0000   0.5518
  -1.780   0.5311   0.01494   0.00859  -0.1591  0.3457  0.0181  -2.1467   0.0000   0.0000   0.0000   0.5511
  -1.770   0.5321   0.01495   0.00860  -0.1590  0.3457  0.0181  -2.1477   0.0000   0.0000   0.0000   0.5504
  -1.760   0.5330   0.01495   0.00861  -0.1590  0.3457  0.0181  -2.1488   0.0000   0.0000   0.0000   0.5497
  -1.750   0.5339   0.01496   0.00862  -0.1589  0.3457  0.0182  -2.1499   0.0000   0.0000   0.0000   0.5490
  -1.740   0.5349   0.01497   0.00862  -0.1589  0.3456  0.0182  -2.1509   0.0000   0.0000   0.0000   0.5483
  -1.730   0.5358   0.01498   0.00863  -0.1588  0.3456  0.0182  -2.1520   0.0000   0.0000   0.0000   0.5477
  -1.720   0.5367   0.01498   0.00864  -0.1588  0.3456  0.0182  -2.1530   0.0000   0.0000   0.0000   0.5470
  -1.710   0.5377   0.01499   0.00864  -0.1587  0.3456  0.0182  -2.1541   0.0000   0.0000   0.0000   0.5463
  -1.700   0.5386   0.01500   0.00865  -0.1587  0.3456  0.0183  -2.1552   0.0000   0.0000   0.0000   0.5457
  -1.690   0.5396   0.01500   0.00866  -0.1586  0.3455  0.0183  -2.1562   0.0000   0.0000   0.0000   0.5450
  -1.680   0.5405   0.01501   0.00867  -0.1586  0.3455  0.0183  -2.1573   0.0000   0.0000   0.0000   0.5443
  -1.670   0.5415   0.01502   0.00867  -0.1586  0.3455  0.0183  -2.1584   0.0000   0.0000   0.0000   0.5437
  -1.660   0.5424   0.01502   0.00868  -0.1585  0.3455  0.0183  -2.1594   0.0000   0.0000   0.0000   0.5430
  -1.650   0.5433   0.01503   0.00869  -0.1585  0.3455  0.0184  -2.1605   0.0000   0.0000   0.0000   0.5424
  -1.640   0.5443   0.01504   0.00869  -0.1584  0.3454  0.0184  -2.1615   0.0000   0.0000   0.0000   0.5417
  -1.630   0.5452   0.01505   0.00870  -0.1584  0.3454  0.0184  -2.1626   0.0000   0.0000   0.0000   0.5410
  -1.620   0.5462   0.01505   0.00871  -0.1583  0.3454  0.0184  -2.1637   0.0000   0.0000   0.0000   0.5404
  -1.610   0.5471   0.01506   0.00872  -0.1583  0.3454  0.0185  -2.1647   0.0000   0.0000   0.0000   0.5397
  -1.600   0.5481   0.01507   0.00872  -0.1583  0.3453  0.0185  -2.1658   0.0000   0.0000   0.0000   0.5391
  -1.590   0.5490   0.01507   0.00873  -0.1582  0.3453  0.0185  -2.1669   0.0000   0.0000   0.0000   0.5385
  -1.580   0.5499   0.01508   0.00874  -0.1582  0.3453  0.0185  -2.1679   0.0000   0.0000   0.0000   0.5378
  -1.570   0.5509   0.01509   0.00874  -0.1581  0.3453  0.0185  -2.1690   0.0000   0.0000   0.0000   0.5372
  -1.560   0.5518   0.01510   0.00875  -0.1581  0.3452  0.0186  -2.1701   0.0000   0.0000   0.0000   0.5365
  -1.550   0.5528   0.01510   0.00876  -0.1580  0.3452  0.0186  -2.1711   0.0000   0.0000   0.0000   0.5359
  -1.540   0.5537   0.01511   0.00877  -0.1580  0.3452  0.0186  -2.1722   0.0000   0.0000   0.0000   0.5353
  -1.530   0.5547   0.01512   0.00877  -0.1579  0.3452  0.0186  -2.1733   0.0000   0.0000   0.0000   0.5346
  -1.520   0.5556   0.01512   0.00878  -0.1579  0.3451  0.0187  -2.1744   0.0000   0.0000   0.0000   0.5340
  -1.510   0.5566   0.01513   0.00879  -0.1579  0.3451  0.0187  -2.1754   0.0000   0.0000   0.0000   0.5334
  -1.500   0.5575   0.01514   0.00880  -0.1578  0.3451  0.0187  -2.1765   0.0000   0.0000   0.0000   0.5327
  -1.490   0.5585   0.01515   0.00880  -0.1578  0.3451  0.0187  -2.1776   0.0000   0.0000   0.0000   0.5321
  -1.480   0.5594   0.01515   0.00881  -0.1577  0.3450  0.0188  -2.1786   0.0000   0.0000   0.0000   0.5315
  -1.470   0.5604   0.01516   0.00882  -0.1577  0.3450  0.0188  -2.1797   0.0000   0.0000   0.0000   0.5309
  -1.460   0.5613   0.01517   0.00882  -0.1576  0.3450  0.0188  -2.1808   0.0000   0.0000   0.0000   0.5303
  -1.450   0.5623   0.01517   0.00883  -0.1576  0.3449  0.0188  -2.1818   0.0000   0.0000   0.0000   0.5297
  -1.440   0.5632   0.01518   0.00884  -0.1576  0.3449  0.0189  -2.1829   0.0000   0.0000   0.0000   0.5290
  -1.430   0.5642   0.01519   0.00885  -0.1575  0.3449  0.0189  -2.1840   0.0000   0.0000   0.0000   0.5284
  -1.420   0.5651   0.01520   0.00885  -0.1575  0.3449  0.0189  -2.1850   0.0000   0.0000   0.0000   0.5278
  -1.410   0.5661   0.01520   0.00886  -0.1574  0.3448  0.0189  -2.1861   0.0000   0.0000   0.0000   0.5272
  -1.400   0.5670   0.01521   0.00887  -0.1574  0.3448  0.0189  -2.1872   0.0000   0.0000   0.0000   0.5266
  -1.390   0.5679   0.01522   0.00888  -0.1573  0.3448  0.0190  -2.1882   0.0000   0.0000   0.0000   0.5260
  -1.380   0.5689   0.01523   0.00888  -0.1573  0.3448  0.0190  -2.1893   0.0000   0.0000   0.0000   0.5254
  -1.370   0.5698   0.01523   0.00889  -0.1573  0.3447  0.0190  -2.1904   0.0000   0.0000   0.0000   0.5248
  -1.360   0.5708   0.01524   0.00890  -0.1572  0.3447  0.0190  -2.1915   0.0000   0.0000   0.0000   0.5242
  -1.350   0.5717   0.01525   0.00891  -0.1572  0.3447  0.0191  -2.1925   0.0000   0.0000   0.0000   0.5236
  -1.340   0.5727   0.01526   0.00891  -0.1571  0.3447  0.0191  -2.1936   0.0000   0.0000   0.0000   0.5230
  -1.330   0.5736   0.01526   0.00892  -0.1571  0.3446  0.0191  -2.1947   0.0000   0.0000   0.0000   0.5224
  -1.320   0.5746   0.01527   0.00893  -0.1570  0.3446  0.0191  -2.1957   0.0000   0.0000   0.0000   0.5218
  -1.310   0.5755   0.01528   0.00894  -0.1570  0.3446  0.0191  -2.1968   0.0000   0.0000   0.0000   0.5213
  -1.300   0.5765   0.01529   0.00894  -0.1570  0.3445  0.0192  -2.1979   0.0000   0.0000   0.0000   0.5207
  -1.290   0.5774   0.01529   0.00895  -0.1569  0.3445  0.0192  -2.1989   0.0000   0.0000   0.0000   0.5201
  -1.280   0.5784   0.01530   0.00896  -0.1569  0.3445  0.0192  -2.2000   0.0000   0.0000   0.0000   0.5195
  -1.270   0.5793   0.01531   0.00897  -0.1568  0.3445  0.0192  -2.2011   0.0000   0.0000   0.0000   0.5189
  -1.260   0.5803   0.01531   0.00897  -0.1568  0.3444  0.0192  -2.2022   0.0000   0.0000   0.0000   0.5184
  -1.250   0.5813   0.01532   0.00898  -0.1567  0.3444  0.0193  -2.2033   0.0000   0.0000   0.0000   0.5178
  -1.240   0.5822   0.01533   0.00899  -0.1567  0.3444  0.0193  -2.2043   0.0000   0.0000   0.0000   0.5172
  -1.230   0.5832   0.01534   0.00900  -0.1567  0.3444  0.0193  -2.2054   0.0000   0.0000   0.0000   0.5166
  -1.220   0.5841   0.01535   0.00901  -0.1566  0.3444  0.0193  -2.2065   0.0000   0.0000   0.0000   0.5161
  -1.210   0.5850   0.01535   0.00901  -0.1566  0.3443  0.0193  -2.2075   0.0000   0.0000   0.0000   0.5155
  -1.200   0.5860   0.01536   0.00902  -0.1565  0.3443  0.0193  -2.2086   0.0000   0.0000   0.0000   0.5149
  -1.190   0.5869   0.01537   0.00903  -0.1565  0.3443  0.0194  -2.2096   0.0000   0.0000   0.0000   0.5144
  -1.180   0.5878   0.01538   0.00904  -0.1564  0.3443  0.0194  -2.2106   0.0000   0.0000   0.0000   0.5138
  -1.170   0.5887   0.01539   0.00905  -0.1564  0.3443  0.0194  -2.2117   0.0000   0.0000   0.0000   0.5133
  -1.160   0.5896   0.01540   0.00906  -0.1563  0.3442  0.0194  -2.2127   0.0000   0.0000   0.0000   0.5127
  -1.150   0.5905   0.01541   0.00907  -0.1563  0.3442  0.0194  -2.2137   0.0000   0.0000   0.0000   0.5122
  -1.140   0.5914   0.01542   0.00908  -0.1562  0.3442  0.0194  -2.2147   0.0000   0.0000   0.0000   0.5116
  -1.130   0.5923   0.01543   0.00909  -0.1562  0.3442  0.0194  -2.2157   0.0000   0.0000   0.0000   0.5111
  -1.120   0.5932   0.01543   0.00910  -0.1561  0.3442  0.0195  -2.2168   0.0000   0.0000   0.0000   0.5106
  -1.110   0.5941   0.01544   0.00911  -0.1561  0.3441  0.0195  -2.2178   0.0000   0.0000   0.0000   0.5100
  -1.100   0.5949   0.01545   0.00912  -0.1560  0.3441  0.0195  -2.2188   0.0000   0.0000   0.0000   0.5095
  -1.090   0.5958   0.01546   0.00913  -0.1560  0.3441  0.0195  -2.2198   0.0000   0.0000   0.0000   0.5090
  -1.080   0.5967   0.01547   0.00914  -0.1559  0.3441  0.0195  -2.2208   0.0000   0.0000   0.0000   0.5084
  -1.070   0.5976   0.01548   0.00915  -0.1559  0.3441  0.0195  -2.2218   0.0000   0.0000   0.0000   0.5079
  -1.060   0.5985   0.01549   0.00916  -0.1558  0.3440  0.0195  -2.2228   0.0000   0.0000   0.0000   0.5074
  -1.050   0.5994   0.01550   0.00917  -0.1558  0.3440  0.0195  -2.2238   0.0000   0.0000   0.0000   0.5069
  -1.040   0.6002   0.01551   0.00918  -0.1557  0.3440  0.0195  -2.2248   0.0000   0.0000   0.0000   0.5063
  -1.030   0.6011   0.01552   0.00919  -0.1557  0.3440  0.0196  -2.2258   0.0000   0.0000   0.0000   0.5058
  -1.020   0.6020   0.01553   0.00920  -0.1556  0.3439  0.0196  -2.2268   0.0000   0.0000   0.0000   0.5053
  -1.010   0.6029   0.01554   0.00921  -0.1556  0.3439  0.0196  -2.2278   0.0000   0.0000   0.0000   0.5048
  -1.000   0.6037   0.01555   0.00922  -0.1555  0.3439  0.0196  -2.2288   0.0000   0.0000   0.0000   0.5043
  -0.990   0.6046   0.01556   0.00923  -0.1555  0.3439  0.0196  -2.2298   0.0000   0.0000   0.0000   0.5037
  -0.980   0.6055   0.01557   0.00924  -0.1554  0.3439  0.0196  -2.2308   0.0000   0.0000   0.0000   0.5032
  -0.970   0.6064   0.01558   0.00925  -0.1554  0.3438  0.0196  -2.2318   0.0000   0.0000   0.0000   0.5027
  -0.960   0.6073   0.01559   0.00926  -0.1553  0.3438  0.0196  -2.2329   0.0000   0.0000   0.0000   0.5022
  -0.950   0.6082   0.01560   0.00927  -0.1553  0.3438  0.0196  -2.2339   0.0000   0.0000   0.0000   0.5017
  -0.940   0.6091   0.01561   0.00928  -0.1552  0.3438  0.0196  -2.2349   0.0000   0.0000   0.0000   0.5012
  -0.930   0.6100   0.01562   0.00929  -0.1552  0.3437  0.0196  -2.2359   0.0000   0.0000   0.0000   0.5007
  -0.920   0.6109   0.01563   0.00930  -0.1551  0.3437  0.0196  -2.2369   0.0000   0.0000   0.0000   0.5001
  -0.910   0.6118   0.01564   0.00931  -0.1551  0.3437  0.0196  -2.2380   0.0000   0.0000   0.0000   0.4996
  -0.900   0.6127   0.01565   0.00932  -0.1551  0.3437  0.0196  -2.2390   0.0000   0.0000   0.0000   0.4991
  -0.890   0.6136   0.01566   0.00933  -0.1550  0.3437  0.0197  -2.2400   0.0000   0.0000   0.0000   0.4986
  -0.880   0.6145   0.01567   0.00934  -0.1550  0.3436  0.0197  -2.2410   0.0000   0.0000   0.0000   0.4981
  -0.870   0.6154   0.01568   0.00935  -0.1549  0.3436  0.0197  -2.2421   0.0000   0.0000   0.0000   0.4976
  -0.860   0.6164   0.01569   0.00936  -0.1549  0.3436  0.0197  -2.2431   0.0000   0.0000   0.0000   0.4971
  -0.850   0.6173   0.01570   0.00937  -0.1548  0.3436  0.0197  -2.2442   0.0000   0.0000   0.0000   0.4966
  -0.840   0.6182   0.01571   0.00938  -0.1548  0.3435  0.0197  -2.2452   0.0000   0.0000   0.0000   0.4961
  -0.830   0.6191   0.01572   0.00939  -0.1547  0.3435  0.0197  -2.2462   0.0000   0.0000   0.0000   0.4956
  -0.820   0.6200   0.01573   0.00940  -0.1547  0.3435  0.0197  -2.2473   0.0000   0.0000   0.0000   0.4951
  -0.810   0.6209   0.01574   0.00941  -0.1546  0.3435  0.0197  -2.2483   0.0000   0.0000   0.0000   0.4946
  -0.800   0.6219   0.01575   0.00942  -0.1546  0.3434  0.0197  -2.2494   0.0000   0.0000   0.0000   0.4941
  -0.790   0.6228   0.01576   0.00942  -0.1546  0.3434  0.0197  -2.2504   0.0000   0.0000   0.0000   0.4936
  -0.780   0.6237   0.01576   0.00943  -0.1545  0.3434  0.0197  -2.2515   0.0000   0.0000   0.0000   0.4931
  -0.770   0.6246   0.01577   0.00944  -0.1545  0.3434  0.0197  -2.2525   0.0000   0.0000   0.0000   0.4927
  -0.760   0.6256   0.01578   0.00945  -0.1544  0.3433  0.0198  -2.2536   0.0000   0.0000   0.0000   0.4922
  -0.750   0.6265   0.01579   0.00946  -0.1544  0.3433  0.0198  -2.2546   0.0000   0.0000   0.0000   0.4917
  -0.740   0.6274   0.01580   0.00947  -0.1543  0.3433  0.0198  -2.2557   0.0000   0.0000   0.0000   0.4912
  -0.730   0.6284   0.01581   0.00948  -0.1543  0.3433  0.0198  -2.2567   0.0000   0.0000   0.0000   0.4907
  -0.720   0.6293   0.01582   0.00949  -0.1543  0.3432  0.0198  -2.2578   0.0000   0.0000   0.0000   0.4902
  -0.710   0.6302   0.01583   0.00950  -0.1542  0.3432  0.0198  -2.2588   0.0000   0.0000   0.0000   0.4897
  -0.700   0.6312   0.01584   0.00951  -0.1542  0.3432  0.0198  -2.2599   0.0000   0.0000   0.0000   0.4893
  -0.690   0.6321   0.01585   0.00952  -0.1541  0.3432  0.0198  -2.2609   0.0000   0.0000   0.0000   0.4888
  -0.680   0.6330   0.01586   0.00953  -0.1541  0.3431  0.0198  -2.2620   0.0000   0.0000   0.0000   0.4883
  -0.670   0.6340   0.01587   0.00954  -0.1540  0.3431  0.0198  -2.2630   0.0000   0.0000   0.0000   0.4878
  -0.660   0.6349   0.01587   0.00955  -0.1540  0.3431  0.0198  -2.2641   0.0000   0.0000   0.0000   0.4873
  -0.650   0.6359   0.01588   0.00956  -0.1540  0.3431  0.0198  -2.2652   0.0000   0.0000   0.0000   0.4869
  -0.640   0.6368   0.01589   0.00957  -0.1539  0.3431  0.0198  -2.2662   0.0000   0.0000   0.0000   0.4864
  -0.630   0.6377   0.01590   0.00957  -0.1539  0.3430  0.0199  -2.2673   0.0000   0.0000   0.0000   0.4859
  -0.620   0.6387   0.01591   0.00958  -0.1538  0.3430  0.0199  -2.2683   0.0000   0.0000   0.0000   0.4854
  -0.610   0.6396   0.01592   0.00959  -0.1538  0.3430  0.0199  -2.2694   0.0000   0.0000   0.0000   0.4850
  -0.600   0.6406   0.01593   0.00960  -0.1538  0.3430  0.0199  -2.2705   0.0000   0.0000   0.0000   0.4845
  -0.590   0.6415   0.01594   0.00961  -0.1537  0.3429  0.0199  -2.2715   0.0000   0.0000   0.0000   0.4840
  -0.580   0.6424   0.01595   0.00962  -0.1537  0.3429  0.0199  -2.2726   0.0000   0.0000   0.0000   0.4836
  -0.570   0.6434   0.01596   0.00963  -0.1536  0.3429  0.0199  -2.2737   0.0000   0.0000   0.0000   0.4831
  -0.560   0.6443   0.01597   0.00964  -0.1536  0.3429  0.0199  -2.2747   0.0000   0.0000   0.0000   0.4826
  -0.550   0.6453   0.01597   0.00965  -0.1536  0.3428  0.0199  -2.2758   0.0000   0.0000   0.0000   0.4822
  -0.540   0.6462   0.01598   0.00966  -0.1535  0.3428  0.0199  -2.2768   0.0000   0.0000   0.0000   0.4817
  -0.530   0.6472   0.01599   0.00967  -0.1535  0.3428  0.0199  -2.2779   0.0000   0.0000   0.0000   0.4813
  -0.520   0.6481   0.01600   0.00968  -0.1534  0.3428  0.0199  -2.2790   0.0000   0.0000   0.0000   0.4808
  -0.510   0.6491   0.01601   0.00969  -0.1534  0.3427  0.0199  -2.2800   0.0000   0.0000   0.0000   0.4803
  -0.500   0.6500   0.01602   0.00970  -0.1534  0.3427  0.0200  -2.2811   0.0000   0.0000   0.0000   0.4799
  -0.490   0.6509   0.01603   0.00971  -0.1533  0.3427  0.0200  -2.2822   0.0000   0.0000   0.0000   0.4794
  -0.480   0.6519   0.01604   0.00971  -0.1533  0.3427  0.0200  -2.2832   0.0000   0.0000   0.0000   0.4790
  -0.470   0.6528   0.01605   0.00972  -0.1532  0.3427  0.0200  -2.2843   0.0000   0.0000   0.0000   0.4785
  -0.460   0.6538   0.01606   0.00973  -0.1532  0.3426  0.0200  -2.2854   0.0000   0.0000   0.0000   0.4781
  -0.450   0.6547   0.01607   0.00974  -0.1532  0.3426  0.0200  -2.2864   0.0000   0.0000   0.0000   0.4776
  -0.440   0.6557   0.01608   0.00975  -0.1531  0.3426  0.0200  -2.2875   0.0000   0.0000   0.0000   0.4772
  -0.430   0.6566   0.01608   0.00976  -0.1531  0.3426  0.0200  -2.2885   0.0000   0.0000   0.0000   0.4767
  -0.420   0.6576   0.01609   0.00977  -0.1530  0.3426  0.0200  -2.2896   0.0000   0.0000   0.0000   0.4763
  -0.410   0.6585   0.01610   0.00978  -0.1530  0.3425  0.0200  -2.2907   0.0000   0.0000   0.0000   0.4758
  -0.400   0.6594   0.01611   0.00979  -0.1530  0.3425  0.0200  -2.2917   0.0000   0.0000   0.0000   0.4754
  -0.390   0.6604   0.01612   0.00980  -0.1529  0.3425  0.0200  -2.2928   0.0000   0.0000   0.0000   0.4750
  -0.380   0.6613   0.01613   0.00981  -0.1529  0.3425  0.0200  -2.2939   0.0000   0.0000   0.0000   0.4745
  -0.370   0.6623   0.01614   0.00982  -0.1528  0.3425  0.0201  -2.2949   0.0000   0.0000   0.0000   0.4741
  -0.360   0.6632   0.01615   0.00983  -0.1528  0.3424  0.0201  -2.2960   0.0000   0.0000   0.0000   0.4736
  -0.350   0.6642   0.01616   0.00984  -0.1528  0.3424  0.0201  -2.2971   0.0000   0.0000   0.0000   0.4732
  -0.340   0.6651   0.01617   0.00985  -0.1527  0.3424  0.0201  -2.2981   0.0000   0.0000   0.0000   0.4728
  -0.330   0.6661   0.01618   0.00986  -0.1527  0.3424  0.0201  -2.2992   0.0000   0.0000   0.0000   0.4723
  -0.320   0.6670   0.01619   0.00987  -0.1526  0.3424  0.0201  -2.3002   0.0000   0.0000   0.0000   0.4719
  -0.310   0.6679   0.01620   0.00988  -0.1526  0.3423  0.0201  -2.3013   0.0000   0.0000   0.0000   0.4715
  -0.300   0.6689   0.01621   0.00989  -0.1526  0.3423  0.0201  -2.3023   0.0000   0.0000   0.0000   0.4711
  -0.290   0.6698   0.01622   0.00990  -0.1525  0.3423  0.0201  -2.3034   0.0000   0.0000   0.0000   0.4706
  -0.280   0.6707   0.01623   0.00991  -0.1525  0.3423  0.0201  -2.3044   0.0000   0.0000   0.0000   0.4702
  -0.270   0.6716   0.01624   0.00992  -0.1524  0.3423  0.0201  -2.3054   0.0000   0.0000   0.0000   0.4698
  -0.260   0.6725   0.01625   0.00993  -0.1524  0.3423  0.0201  -2.3065   0.0000   0.0000   0.0000   0.4694
  -0.250   0.6734   0.01626   0.00994  -0.1523  0.3423  0.0201  -2.3075   0.0000   0.0000   0.0000   0.4689
  -0.240   0.6743   0.01627   0.00995  -0.1523  0.3422  0.0201  -2.3085   0.0000   0.0000   0.0000   0.4685
  -0.230   0.6752   0.01628   0.00996  -0.1522  0.3422  0.0202  -2.3095   0.0000   0.0000   0.0000   0.4681
  -0.220   0.6761   0.01629   0.00998  -0.1522  0.3422  0.0202  -2.3105   0.0000   0.0000   0.0000   0.4677
  -0.210   0.6769   0.01630   0.00999  -0.1521  0.3422  0.0202  -2.3115   0.0000   0.0000   0.0000   0.4673
  -0.200   0.6778   0.01632   0.01000  -0.1521  0.3422  0.0202  -2.3124   0.0000   0.0000   0.0000   0.4669
  -0.190   0.6787   0.01633   0.01001  -0.1520  0.3422  0.0202  -2.3134   0.0000   0.0000   0.0000   0.4665
  -0.180   0.6795   0.01634   0.01003  -0.1520  0.3422  0.0202  -2.3144   0.0000   0.0000   0.0000   0.4661
  -0.170   0.6804   0.01635   0.01004  -0.1519  0.3422  0.0202  -2.3154   0.0000   0.0000   0.0000   0.4657
  -0.160   0.6812   0.01636   0.01005  -0.1519  0.3421  0.0202  -2.3163   0.0000   0.0000   0.0000   0.4653
  -0.150   0.6821   0.01638   0.01006  -0.1518  0.3421  0.0202  -2.3173   0.0000   0.0000   0.0000   0.4649
  -0.140   0.6830   0.01639   0.01008  -0.1518  0.3421  0.0202  -2.3183   0.0000   0.0000   0.0000   0.4645
  -0.130   0.6838   0.01640   0.01009  -0.1517  0.3421  0.0202  -2.3193   0.0000   0.0000   0.0000   0.4641
  -0.120   0.6847   0.01641   0.01010  -0.1517  0.3421  0.0202  -2.3202   0.0000   0.0000   0.0000   0.4637
  -0.110   0.6855   0.01643   0.01012  -0.1516  0.3421  0.0202  -2.3212   0.0000   0.0000   0.0000   0.4633
  -0.100   0.6864   0.01644   0.01013  -0.1516  0.3421  0.0203  -2.3222   0.0000   0.0000   0.0000   0.4629
  -0.090   0.6873   0.01645   0.01014  -0.1516  0.3421  0.0203  -2.3232   0.0000   0.0000   0.0000   0.4625
  -0.080   0.6881   0.01646   0.01015  -0.1515  0.3421  0.0203  -2.3241   0.0000   0.0000   0.0000   0.4621
  -0.070   0.6890   0.01648   0.01017  -0.1515  0.3421  0.0203  -2.3251   0.0000   0.0000   0.0000   0.4617
  -0.060   0.6899   0.01649   0.01018  -0.1514  0.3420  0.0203  -2.3261   0.0000   0.0000   0.0000   0.4613
  -0.050   0.6907   0.01650   0.01019  -0.1514  0.3420  0.0203  -2.3271   0.0000   0.0000   0.0000   0.4609
  -0.040   0.6916   0.01651   0.01020  -0.1513  0.3420  0.0203  -2.3281   0.0000   0.0000   0.0000   0.4605
  -0.030   0.6925   0.01653   0.01022  -0.1513  0.3420  0.0203  -2.3291   0.0000   0.0000   0.0000   0.4601
  -0.020   0.6934   0.01654   0.01023  -0.1512  0.3420  0.0203  -2.3301   0.0000   0.0000   0.0000   0.4598
  -0.010   0.6942   0.01655   0.01024  -0.1512  0.3420  0.0203  -2.3311   0.0000   0.0000   0.0000   0.4594
   0.000   0.6951   0.01656   0.01025  -0.1511  0.3420  0.0203  -2.3320   0.0000   0.0000   0.0000   0.4590


