xflr5 v6.61

 Calculated polar for: NACA 0012

 1 1 Reynolds number fixed          Mach number fixed         

 xtrf =   1.000 (top)        1.000 (bottom)
 Mach =   0.000     Re =     1.000 e 6     Ncrit =   9.000

  alpha     CL        CD       CDp       Cm    Top Xtr Bot Xtr   Cpmin    Chinge    XCp    
 ------- -------- --------- --------- -------- ------- ------- -------- --------- ---------
 -25.000  -0.6164   0.25515   0.25366   0.0564  1.0000  0.0090  -1.3507   0.0000   0.0000   0.0000   0.3207
 -24.000  -0.6042   0.24261   0.24110   0.0511  1.0000  0.0094  -1.4105   0.0000   0.0000   0.0000   0.3148
 -23.000  -0.5872   0.23291   0.23138   0.0460  1.0000  0.0106  -1.2929   0.0000   0.0000   0.0000   0.3102
 -22.000  -0.5811   0.21759   0.21604   0.0396  1.0000  0.0121  -1.6543   0.0000   0.0000   0.0000   0.3003
 -21.000  -0.5601   0.20937   0.20780   0.0353  1.0000  0.0130  -1.4308   0.0000   0.0000   0.0000   0.2968
 -20.000  -0.8294   0.23978   0.23799   0.0696  1.0000  0.0131  -2.2716   0.0000   0.0000   0.0000   0.3108
 -19.000  -0.5516   0.18075   0.17913   0.0232  1.0000  0.0148  -2.0327   0.0000   0.0000   0.0000   0.2761
 -18.000  -0.5375   0.17122   0.16959   0.0184  1.0000  0.0164  -1.9390   0.0000   0.0000   0.0000   0.2693
 -17.000  -1.3460   0.06063   0.05687  -0.0222  1.0000  0.0137  -10.2816   0.0000   0.0000   0.0000   0.2098
 -16.000  -1.3748   0.04300   0.03876  -0.0302  1.0000  0.0142  -10.0720   0.0000   0.0000   0.0000   0.2068
 -15.000  -1.3665   0.03280   0.02811  -0.0315  1.0000  0.0148  -9.5460   0.0000   0.0000   0.0000   0.2078
 -14.000  -1.3572   0.02549   0.02041  -0.0262  1.0000  0.0159  -8.9960   0.0000   0.0000   0.0000   0.2136
 -13.000  -1.3122   0.02209   0.01677  -0.0188  1.0000  0.0173  -8.1827   0.0000   0.0000   0.0000   0.2202
 -12.000  -1.2456   0.01924   0.01366  -0.0133  1.0000  0.0192  -7.2941   0.0000   0.0000   0.0000   0.2254
 -11.000  -1.1644   0.01706   0.01132  -0.0094  1.0000  0.0218  -6.3588   0.0000   0.0000   0.0000   0.2295
 -10.000  -1.0796   0.01507   0.00920  -0.0054  1.0000  0.0254  -5.4969   0.0000   0.0000   0.0000   0.2339
  -9.000  -0.9939   0.01350   0.00754  -0.0010  1.0000  0.0304  -4.7008   0.0000   0.0000   0.0000   0.2391
  -8.000  -0.9105   0.01211   0.00612   0.0041  1.0000  0.0381  -3.9579   0.0000   0.0000   0.0000   0.2458
  -7.000  -0.8269   0.01099   0.00502   0.0094  1.0000  0.0505  -3.3048   0.0000   0.0000   0.0000   0.2537
  -6.000  -0.6937   0.00977   0.00397   0.0041  0.9942  0.0814  -2.5646   0.0000   0.0000   0.0000   0.2490
  -5.000  -0.5553   0.00849   0.00305  -0.0023  0.9862  0.1493  -1.9245   0.0000   0.0000   0.0000   0.2396
  -4.000  -0.4278   0.00730   0.00232  -0.0060  0.9682  0.2534  -1.4170   0.0000   0.0000   0.0000   0.2303
  -3.000  -0.3198   0.00641   0.00181  -0.0049  0.9289  0.3644  -1.0428   0.0000   0.0000   0.0000   0.2295
  -2.000  -0.2143   0.00581   0.00144  -0.0030  0.8678  0.4747  -0.7602   0.0000   0.0000   0.0000   0.2312
  -1.000  -0.1074   0.00550   0.00122  -0.0014  0.7852  0.5832  -0.5558   0.0000   0.0000   0.0000   0.2322
   0.000  -0.0000   0.00541   0.00115   0.0000  0.6877  0.6877  -0.4138   0.0000   0.0000   0.0000   0.5050
   1.000   0.1074   0.00550   0.00122   0.0014  0.5832  0.7852  -0.5558   0.0000   0.0000   0.0000   0.2322
   2.000   0.2143   0.00581   0.00144   0.0030  0.4747  0.8678  -0.7602   0.0000   0.0000   0.0000   0.2312
   3.000   0.3198   0.00641   0.00181   0.0049  0.3643  0.9289  -1.0428   0.0000   0.0000   0.0000   0.2295
   4.000   0.4278   0.00730   0.00232   0.0060  0.2534  0.9682  -1.4170   0.0000   0.0000   0.0000   0.2303
   5.000   0.5553   0.00849   0.00305   0.0023  0.1493  0.9862  -1.9245   0.0000   0.0000   0.0000   0.2396
   6.000   0.6937   0.00977   0.00397  -0.0041  0.0814  0.9942  -2.5647   0.0000   0.0000   0.0000   0.2490
   7.000   0.8269   0.01099   0.00502  -0.0094  0.0505  1.0000  -3.3045   0.0000   0.0000   0.0000   0.2536
   8.000   0.9104   0.01211   0.00612  -0.0041  0.0381  1.0000  -3.9576   0.0000   0.0000   0.0000   0.2458
   9.000   0.9939   0.01350   0.00754   0.0010  0.0304  1.0000  -4.7007   0.0000   0.0000   0.0000   0.2391
  10.000   1.0797   0.01507   0.00920   0.0054  0.0254  1.0000  -5.4971   0.0000   0.0000   0.0000   0.2339
  11.000   1.1645   0.01706   0.01132   0.0093  0.0218  1.0000  -6.3593   0.0000   0.0000   0.0000   0.2295
  12.000   1.2458   0.01924   0.01366   0.0133  0.0192  1.0000  -7.2950   0.0000   0.0000   0.0000   0.2255
  13.000   1.3126   0.02209   0.01677   0.0188  0.0173  1.0000  -8.1849   0.0000   0.0000   0.0000   0.2203
  14.000   1.3578   0.02549   0.02041   0.0261  0.0158  1.0000  -8.9995   0.0000   0.0000   0.0000   0.2137
  15.000   1.3677   0.03277   0.02809   0.0314  0.0148  1.0000  -9.5529   0.0000   0.0000   0.0000   0.2080
  16.000   1.3764   0.04295   0.03870   0.0300  0.0142  1.0000  -10.0828   0.0000   0.0000   0.0000   0.2070
  17.000   1.3482   0.06053   0.05677   0.0220  0.0137  1.0000  -10.2972   0.0000   0.0000   0.0000   0.2100
  18.000   1.2758   0.08673   0.08348   0.0087  0.0135  1.0000  -10.0106   0.0000   0.0000   0.0000   0.2171
  19.000   1.1873   0.11787   0.11509  -0.0074  0.0133  1.0000  -9.4000   0.0000   0.0000   0.0000   0.2280
  20.000   1.1089   0.14985   0.14748  -0.0250  0.0131  1.0000  -8.6621   0.0000   0.0000   0.0000   0.2425
  22.000   0.8908   0.26959   0.26781  -0.0885  0.0108  1.0000  -2.1788   0.0000   0.0000   0.0000   0.3230
  23.000   0.9235   0.28117   0.27941  -0.0973  0.0096  1.0000  -2.3074   0.0000   0.0000   0.0000   0.3268
  24.000   0.9547   0.29276   0.29101  -0.1055  0.0091  1.0000  -2.4848   0.0000   0.0000   0.0000   0.3296
  25.000   0.9853   0.30931   0.30757  -0.1173  0.0075  1.0000  -2.1984   0.0000   0.0000   0.0000   0.3366


