xflr5 v6.61

 Calculated polar for: Airfoil-RevE-HC

 1 1 Reynolds number fixed          Mach number fixed         

 xtrf =   1.000 (top)        1.000 (bottom)
 Mach =   0.180     Re =     1.500 e 6     Ncrit =   0.500

  alpha     CL        CD       CDp       Cm    Top Xtr Bot Xtr   Cpmin    Chinge    XCp    
 ------- -------- --------- --------- -------- ------- ------- -------- --------- ---------
 -12.000  -0.0967   0.03001   0.02311  -0.2071  0.3764  0.0153  -5.2705   0.0000   0.0000   0.0000  -2.2425
 -11.990  -0.0970   0.02994   0.02304  -0.2070  0.3763  0.0153  -5.2695   0.0000   0.0000   0.0000  -2.2317
 -11.980  -0.0974   0.02988   0.02297  -0.2069  0.3763  0.0153  -5.2685   0.0000   0.0000   0.0000  -2.2217
 -11.970  -0.0977   0.02981   0.02291  -0.2068  0.3763  0.0153  -5.2675   0.0000   0.0000   0.0000  -2.2116
 -11.960  -0.0981   0.02975   0.02284  -0.2068  0.3763  0.0153  -5.2665   0.0000   0.0000   0.0000  -2.2015
 -11.950  -0.0985   0.02968   0.02278  -0.2067  0.3762  0.0153  -5.2655   0.0000   0.0000   0.0000  -2.1913
 -11.940  -0.0988   0.02962   0.02271  -0.2066  0.3762  0.0153  -5.2645   0.0000   0.0000   0.0000  -2.1809
 -11.930  -0.0992   0.02955   0.02264  -0.2066  0.3762  0.0153  -5.2636   0.0000   0.0000   0.0000  -2.1705
 -11.920  -0.0996   0.02949   0.02258  -0.2065  0.3761  0.0153  -5.2627   0.0000   0.0000   0.0000  -2.1599
 -11.910  -0.1000   0.02942   0.02251  -0.2064  0.3761  0.0153  -5.2618   0.0000   0.0000   0.0000  -2.1492
 -11.900  -0.1004   0.02935   0.02244  -0.2063  0.3761  0.0153  -5.2609   0.0000   0.0000   0.0000  -2.1382
 -11.890  -0.1008   0.02928   0.02237  -0.2063  0.3760  0.0153  -5.2601   0.0000   0.0000   0.0000  -2.1271
 -11.880  -0.1013   0.02922   0.02230  -0.2062  0.3760  0.0153  -5.2594   0.0000   0.0000   0.0000  -2.1157
 -11.870  -0.1017   0.02915   0.02223  -0.2061  0.3760  0.0153  -5.2587   0.0000   0.0000   0.0000  -2.1040
 -11.860  -0.1022   0.02908   0.02216  -0.2061  0.3760  0.0153  -5.2581   0.0000   0.0000   0.0000  -2.0920
 -11.850  -0.1027   0.02901   0.02209  -0.2060  0.3759  0.0153  -5.2576   0.0000   0.0000   0.0000  -2.0797
 -11.840  -0.1032   0.02893   0.02202  -0.2059  0.3759  0.0153  -5.2571   0.0000   0.0000   0.0000  -2.0670
 -11.830  -0.1038   0.02886   0.02194  -0.2058  0.3759  0.0153  -5.2567   0.0000   0.0000   0.0000  -2.0539
 -11.820  -0.1043   0.02879   0.02187  -0.2057  0.3758  0.0153  -5.2564   0.0000   0.0000   0.0000  -2.0406
 -11.810  -0.1049   0.02871   0.02179  -0.2057  0.3758  0.0153  -5.2560   0.0000   0.0000   0.0000  -2.0275
 -11.800  -0.1054   0.02864   0.02172  -0.2056  0.3758  0.0153  -5.2557   0.0000   0.0000   0.0000  -2.0145
 -11.790  -0.1060   0.02856   0.02164  -0.2055  0.3758  0.0154  -5.2554   0.0000   0.0000   0.0000  -2.0016
 -11.780  -0.1065   0.02849   0.02157  -0.2054  0.3757  0.0154  -5.2550   0.0000   0.0000   0.0000  -1.9889
 -11.770  -0.1070   0.02842   0.02150  -0.2053  0.3757  0.0154  -5.2546   0.0000   0.0000   0.0000  -1.9766
 -11.760  -0.1075   0.02835   0.02143  -0.2053  0.3757  0.0154  -5.2540   0.0000   0.0000   0.0000  -1.9651
 -11.750  -0.1080   0.02828   0.02136  -0.2052  0.3756  0.0154  -5.2533   0.0000   0.0000   0.0000  -1.9542
 -11.740  -0.1085   0.02822   0.02129  -0.2051  0.3756  0.0154  -5.2525   0.0000   0.0000   0.0000  -1.9442
 -11.730  -0.1089   0.02815   0.02123  -0.2050  0.3756  0.0154  -5.2516   0.0000   0.0000   0.0000  -1.9347
 -11.720  -0.1093   0.02809   0.02117  -0.2049  0.3755  0.0154  -5.2507   0.0000   0.0000   0.0000  -1.9250
 -11.710  -0.1097   0.02803   0.02110  -0.2048  0.3755  0.0154  -5.2498   0.0000   0.0000   0.0000  -1.9153
 -11.700  -0.1102   0.02797   0.02104  -0.2047  0.3755  0.0154  -5.2490   0.0000   0.0000   0.0000  -1.9054
 -11.690  -0.1106   0.02790   0.02097  -0.2047  0.3754  0.0154  -5.2482   0.0000   0.0000   0.0000  -1.8954
 -11.680  -0.1111   0.02784   0.02091  -0.2046  0.3754  0.0154  -5.2474   0.0000   0.0000   0.0000  -1.8853
 -11.670  -0.1116   0.02777   0.02084  -0.2045  0.3754  0.0154  -5.2467   0.0000   0.0000   0.0000  -1.8751
 -11.660  -0.1121   0.02771   0.02078  -0.2044  0.3753  0.0154  -5.2460   0.0000   0.0000   0.0000  -1.8646
 -11.650  -0.1126   0.02764   0.02071  -0.2043  0.3753  0.0154  -5.2454   0.0000   0.0000   0.0000  -1.8539
 -11.640  -0.1131   0.02757   0.02064  -0.2042  0.3753  0.0154  -5.2449   0.0000   0.0000   0.0000  -1.8430
 -11.630  -0.1136   0.02750   0.02057  -0.2041  0.3752  0.0154  -5.2444   0.0000   0.0000   0.0000  -1.8318
 -11.620  -0.1142   0.02744   0.02050  -0.2040  0.3752  0.0154  -5.2440   0.0000   0.0000   0.0000  -1.8203
 -11.610  -0.1148   0.02736   0.02043  -0.2039  0.3752  0.0154  -5.2436   0.0000   0.0000   0.0000  -1.8086
 -11.600  -0.1154   0.02729   0.02036  -0.2038  0.3751  0.0154  -5.2434   0.0000   0.0000   0.0000  -1.7965
 -11.590  -0.1160   0.02722   0.02029  -0.2037  0.3751  0.0154  -5.2431   0.0000   0.0000   0.0000  -1.7846
 -11.580  -0.1166   0.02715   0.02021  -0.2036  0.3751  0.0154  -5.2429   0.0000   0.0000   0.0000  -1.7728
 -11.570  -0.1172   0.02708   0.02014  -0.2035  0.3750  0.0154  -5.2426   0.0000   0.0000   0.0000  -1.7609
 -11.560  -0.1179   0.02701   0.02007  -0.2034  0.3750  0.0154  -5.2424   0.0000   0.0000   0.0000  -1.7492
 -11.550  -0.1185   0.02694   0.02000  -0.2033  0.3750  0.0154  -5.2421   0.0000   0.0000   0.0000  -1.7377
 -11.540  -0.1191   0.02687   0.01993  -0.2032  0.3749  0.0154  -5.2418   0.0000   0.0000   0.0000  -1.7266
 -11.530  -0.1196   0.02681   0.01986  -0.2031  0.3749  0.0154  -5.2413   0.0000   0.0000   0.0000  -1.7161
 -11.520  -0.1202   0.02674   0.01980  -0.2030  0.3749  0.0154  -5.2407   0.0000   0.0000   0.0000  -1.7061
 -11.510  -0.1207   0.02668   0.01974  -0.2029  0.3748  0.0154  -5.2400   0.0000   0.0000   0.0000  -1.6964
 -11.500  -0.1212   0.02662   0.01967  -0.2028  0.3748  0.0154  -5.2394   0.0000   0.0000   0.0000  -1.6867
 -11.490  -0.1218   0.02656   0.01961  -0.2027  0.3748  0.0154  -5.2388   0.0000   0.0000   0.0000  -1.6768
 -11.480  -0.1223   0.02649   0.01955  -0.2026  0.3747  0.0154  -5.2383   0.0000   0.0000   0.0000  -1.6668
 -11.470  -0.1229   0.02643   0.01948  -0.2025  0.3747  0.0154  -5.2378   0.0000   0.0000   0.0000  -1.6566
 -11.460  -0.1235   0.02636   0.01942  -0.2024  0.3747  0.0154  -5.2374   0.0000   0.0000   0.0000  -1.6462
 -11.450  -0.1241   0.02630   0.01935  -0.2023  0.3746  0.0154  -5.2370   0.0000   0.0000   0.0000  -1.6356
 -11.440  -0.1248   0.02623   0.01928  -0.2022  0.3746  0.0154  -5.2367   0.0000   0.0000   0.0000  -1.6248
 -11.430  -0.1254   0.02616   0.01922  -0.2021  0.3746  0.0154  -5.2365   0.0000   0.0000   0.0000  -1.6138
 -11.420  -0.1261   0.02610   0.01915  -0.2019  0.3745  0.0154  -5.2364   0.0000   0.0000   0.0000  -1.6025
 -11.410  -0.1268   0.02603   0.01908  -0.2018  0.3745  0.0154  -5.2364   0.0000   0.0000   0.0000  -1.5909
 -11.400  -0.1275   0.02596   0.01901  -0.2017  0.3745  0.0154  -5.2363   0.0000   0.0000   0.0000  -1.5796
 -11.390  -0.1282   0.02589   0.01894  -0.2016  0.3744  0.0154  -5.2363   0.0000   0.0000   0.0000  -1.5682
 -11.380  -0.1290   0.02582   0.01887  -0.2015  0.3744  0.0154  -5.2363   0.0000   0.0000   0.0000  -1.5567
 -11.370  -0.1297   0.02575   0.01880  -0.2013  0.3744  0.0154  -5.2363   0.0000   0.0000   0.0000  -1.5452
 -11.360  -0.1304   0.02568   0.01873  -0.2012  0.3743  0.0154  -5.2363   0.0000   0.0000   0.0000  -1.5339
 -11.350  -0.1311   0.02562   0.01866  -0.2011  0.3743  0.0154  -5.2362   0.0000   0.0000   0.0000  -1.5229
 -11.340  -0.1318   0.02555   0.01860  -0.2010  0.3742  0.0154  -5.2361   0.0000   0.0000   0.0000  -1.5123
 -11.330  -0.1325   0.02549   0.01853  -0.2008  0.3742  0.0154  -5.2358   0.0000   0.0000   0.0000  -1.5020
 -11.320  -0.1332   0.02543   0.01847  -0.2007  0.3742  0.0154  -5.2356   0.0000   0.0000   0.0000  -1.4916
 -11.310  -0.1339   0.02536   0.01841  -0.2006  0.3741  0.0154  -5.2355   0.0000   0.0000   0.0000  -1.4811
 -11.300  -0.1346   0.02530   0.01834  -0.2004  0.3741  0.0154  -5.2354   0.0000   0.0000   0.0000  -1.4704
 -11.290  -0.1354   0.02524   0.01828  -0.2003  0.3741  0.0154  -5.2355   0.0000   0.0000   0.0000  -1.4594
 -11.280  -0.1362   0.02517   0.01821  -0.2002  0.3740  0.0154  -5.2356   0.0000   0.0000   0.0000  -1.4482
 -11.270  -0.1370   0.02510   0.01814  -0.2000  0.3740  0.0154  -5.2358   0.0000   0.0000   0.0000  -1.4367
 -11.260  -0.1379   0.02504   0.01807  -0.1999  0.3740  0.0154  -5.2361   0.0000   0.0000   0.0000  -1.4250
 -11.250  -0.1387   0.02497   0.01800  -0.1997  0.3739  0.0154  -5.2365   0.0000   0.0000   0.0000  -1.4133
 -11.240  -0.1396   0.02490   0.01794  -0.1996  0.3739  0.0154  -5.2369   0.0000   0.0000   0.0000  -1.4015
 -11.230  -0.1405   0.02483   0.01787  -0.1994  0.3739  0.0154  -5.2374   0.0000   0.0000   0.0000  -1.3896
 -11.220  -0.1414   0.02476   0.01780  -0.1993  0.3738  0.0154  -5.2379   0.0000   0.0000   0.0000  -1.3776
 -11.210  -0.1423   0.02470   0.01773  -0.1991  0.3738  0.0154  -5.2384   0.0000   0.0000   0.0000  -1.3656
 -11.200  -0.1433   0.02463   0.01766  -0.1990  0.3738  0.0154  -5.2390   0.0000   0.0000   0.0000  -1.3537
 -11.190  -0.1442   0.02456   0.01760  -0.1988  0.3737  0.0154  -5.2395   0.0000   0.0000   0.0000  -1.3420
 -11.180  -0.1451   0.02450   0.01753  -0.1986  0.3737  0.0154  -5.2399   0.0000   0.0000   0.0000  -1.3305
 -11.170  -0.1461   0.02444   0.01747  -0.1985  0.3737  0.0154  -5.2405   0.0000   0.0000   0.0000  -1.3188
 -11.160  -0.1471   0.02437   0.01740  -0.1983  0.3736  0.0154  -5.2411   0.0000   0.0000   0.0000  -1.3067
 -11.150  -0.1481   0.02431   0.01734  -0.1981  0.3736  0.0154  -5.2420   0.0000   0.0000   0.0000  -1.2944
 -11.140  -0.1492   0.02424   0.01727  -0.1979  0.3736  0.0154  -5.2429   0.0000   0.0000   0.0000  -1.2816
 -11.130  -0.1503   0.02417   0.01720  -0.1977  0.3735  0.0154  -5.2441   0.0000   0.0000   0.0000  -1.2685
 -11.120  -0.1515   0.02410   0.01713  -0.1976  0.3735  0.0154  -5.2453   0.0000   0.0000   0.0000  -1.2554
 -11.110  -0.1527   0.02404   0.01706  -0.1974  0.3735  0.0154  -5.2466   0.0000   0.0000   0.0000  -1.2420
 -11.100  -0.1539   0.02397   0.01699  -0.1972  0.3734  0.0154  -5.2481   0.0000   0.0000   0.0000  -1.2283
 -11.090  -0.1552   0.02390   0.01692  -0.1969  0.3734  0.0154  -5.2497   0.0000   0.0000   0.0000  -1.2144
 -11.080  -0.1566   0.02383   0.01685  -0.1967  0.3734  0.0154  -5.2514   0.0000   0.0000   0.0000  -1.2003
 -11.070  -0.1579   0.02376   0.01678  -0.1965  0.3734  0.0154  -5.2532   0.0000   0.0000   0.0000  -1.1863
 -11.060  -0.1593   0.02369   0.01672  -0.1963  0.3733  0.0154  -5.2550   0.0000   0.0000   0.0000  -1.1722
 -11.050  -0.1607   0.02363   0.01665  -0.1960  0.3733  0.0154  -5.2569   0.0000   0.0000   0.0000  -1.1580
 -11.040  -0.1622   0.02356   0.01659  -0.1958  0.3733  0.0154  -5.2591   0.0000   0.0000   0.0000  -1.1431
 -11.030  -0.1638   0.02349   0.01652  -0.1955  0.3733  0.0154  -5.2616   0.0000   0.0000   0.0000  -1.1275
 -11.020  -0.1656   0.02342   0.01645  -0.1953  0.3732  0.0154  -5.2645   0.0000   0.0000   0.0000  -1.1112
 -11.010  -0.1674   0.02335   0.01637  -0.1950  0.3732  0.0154  -5.2678   0.0000   0.0000   0.0000  -1.0942
 -11.000  -0.1694   0.02328   0.01630  -0.1947  0.3732  0.0154  -5.2714   0.0000   0.0000   0.0000  -1.0766
 -10.990  -0.1715   0.02320   0.01622  -0.1944  0.3732  0.0154  -5.2755   0.0000   0.0000   0.0000  -1.0581
 -10.980  -0.1738   0.02313   0.01615  -0.1940  0.3732  0.0154  -5.2801   0.0000   0.0000   0.0000  -1.0387
 -10.970  -0.1762   0.02305   0.01607  -0.1936  0.3732  0.0154  -5.2852   0.0000   0.0000   0.0000  -1.0184
 -10.960  -0.1788   0.02298   0.01600  -0.1932  0.3731  0.0154  -5.2908   0.0000   0.0000   0.0000  -0.9974
 -10.950  -0.1816   0.02290   0.01593  -0.1928  0.3731  0.0154  -5.2968   0.0000   0.0000   0.0000  -0.9757
 -10.940  -0.1849   0.02283   0.01585  -0.1923  0.3731  0.0154  -5.3042   0.0000   0.0000   0.0000  -0.9515
 -10.930  -0.1891   0.02274   0.01577  -0.1917  0.3732  0.0154  -5.3147   0.0000   0.0000   0.0000  -0.9208
 -10.920  -0.1951   0.02265   0.01567  -0.1908  0.3732  0.0154  -5.3304   0.0000   0.0000   0.0000  -0.8803
 -10.910  -0.2030   0.02255   0.01557  -0.1897  0.3733  0.0154  -5.3520   0.0000   0.0000   0.0000  -0.8302
 -10.900  -0.2109   0.02244   0.01547  -0.1885  0.3733  0.0154  -5.3735   0.0000   0.0000   0.0000  -0.7842
 -10.890  -0.2158   0.02235   0.01538  -0.1878  0.3734  0.0154  -5.3863   0.0000   0.0000   0.0000  -0.7567
 -10.880  -0.2189   0.02227   0.01529  -0.1873  0.3734  0.0154  -5.3930   0.0000   0.0000   0.0000  -0.7405
 -10.870  -0.2210   0.02219   0.01521  -0.1870  0.3734  0.0154  -5.3973   0.0000   0.0000   0.0000  -0.7291
 -10.860  -0.2230   0.02211   0.01513  -0.1867  0.3733  0.0154  -5.4010   0.0000   0.0000   0.0000  -0.7188
 -10.850  -0.2249   0.02203   0.01505  -0.1864  0.3733  0.0154  -5.4044   0.0000   0.0000   0.0000  -0.7092
 -10.840  -0.2267   0.02195   0.01497  -0.1861  0.3733  0.0154  -5.4074   0.0000   0.0000   0.0000  -0.7004
 -10.830  -0.2283   0.02187   0.01489  -0.1859  0.3733  0.0154  -5.4100   0.0000   0.0000   0.0000  -0.6923
 -10.820  -0.2298   0.02179   0.01482  -0.1856  0.3732  0.0154  -5.4123   0.0000   0.0000   0.0000  -0.6849
 -10.810  -0.2312   0.02172   0.01474  -0.1854  0.3732  0.0154  -5.4141   0.0000   0.0000   0.0000  -0.6783
 -10.800  -0.2325   0.02165   0.01467  -0.1852  0.3732  0.0154  -5.4156   0.0000   0.0000   0.0000  -0.6722
 -10.790  -0.2337   0.02158   0.01459  -0.1851  0.3731  0.0154  -5.4168   0.0000   0.0000   0.0000  -0.6666
 -10.780  -0.2348   0.02150   0.01452  -0.1849  0.3731  0.0154  -5.4178   0.0000   0.0000   0.0000  -0.6613
 -10.770  -0.2358   0.02143   0.01445  -0.1847  0.3731  0.0154  -5.4186   0.0000   0.0000   0.0000  -0.6564
 -10.760  -0.2368   0.02136   0.01437  -0.1846  0.3730  0.0154  -5.4192   0.0000   0.0000   0.0000  -0.6520
 -10.750  -0.2377   0.02129   0.01430  -0.1844  0.3730  0.0154  -5.4195   0.0000   0.0000   0.0000  -0.6478
 -10.740  -0.2385   0.02122   0.01423  -0.1843  0.3730  0.0154  -5.4195   0.0000   0.0000   0.0000  -0.6441
 -10.730  -0.2392   0.02115   0.01416  -0.1842  0.3729  0.0154  -5.4194   0.0000   0.0000   0.0000  -0.6407
 -10.720  -0.2399   0.02109   0.01409  -0.1841  0.3729  0.0154  -5.4190   0.0000   0.0000   0.0000  -0.6375
 -10.710  -0.2405   0.02102   0.01402  -0.1840  0.3729  0.0154  -5.4186   0.0000   0.0000   0.0000  -0.6346
 -10.700  -0.2411   0.02095   0.01395  -0.1839  0.3728  0.0154  -5.4179   0.0000   0.0000   0.0000  -0.6319
 -10.690  -0.2416   0.02088   0.01388  -0.1838  0.3728  0.0154  -5.4171   0.0000   0.0000   0.0000  -0.6294
 -10.680  -0.2421   0.02082   0.01382  -0.1837  0.3727  0.0154  -5.4161   0.0000   0.0000   0.0000  -0.6273
 -10.670  -0.2425   0.02075   0.01375  -0.1836  0.3727  0.0154  -5.4149   0.0000   0.0000   0.0000  -0.6253
 -10.660  -0.2429   0.02069   0.01368  -0.1835  0.3726  0.0154  -5.4136   0.0000   0.0000   0.0000  -0.6235
 -10.650  -0.2432   0.02063   0.01362  -0.1835  0.3726  0.0154  -5.4122   0.0000   0.0000   0.0000  -0.6219
 -10.640  -0.2435   0.02056   0.01355  -0.1834  0.3726  0.0154  -5.4107   0.0000   0.0000   0.0000  -0.6205
 -10.630  -0.2437   0.02050   0.01348  -0.1834  0.3725  0.0154  -5.4090   0.0000   0.0000   0.0000  -0.6192
 -10.620  -0.2439   0.02044   0.01342  -0.1833  0.3725  0.0154  -5.4071   0.0000   0.0000   0.0000  -0.6182
 -10.610  -0.2441   0.02038   0.01336  -0.1833  0.3724  0.0154  -5.4051   0.0000   0.0000   0.0000  -0.6173
 -10.600  -0.2442   0.02032   0.01330  -0.1832  0.3724  0.0154  -5.4030   0.0000   0.0000   0.0000  -0.6165
 -10.590  -0.2443   0.02026   0.01323  -0.1832  0.3723  0.0154  -5.4008   0.0000   0.0000   0.0000  -0.6159
 -10.580  -0.2444   0.02020   0.01317  -0.1832  0.3723  0.0154  -5.3985   0.0000   0.0000   0.0000  -0.6154
 -10.570  -0.2444   0.02014   0.01311  -0.1831  0.3722  0.0154  -5.3961   0.0000   0.0000   0.0000  -0.6151
 -10.560  -0.2444   0.02008   0.01305  -0.1831  0.3722  0.0154  -5.3935   0.0000   0.0000   0.0000  -0.6149
 -10.550  -0.2443   0.02003   0.01300  -0.1831  0.3721  0.0154  -5.3908   0.0000   0.0000   0.0000  -0.6147
 -10.540  -0.2442   0.01997   0.01294  -0.1830  0.3721  0.0154  -5.3881   0.0000   0.0000   0.0000  -0.6147
 -10.530  -0.2441   0.01992   0.01289  -0.1830  0.3720  0.0154  -5.3852   0.0000   0.0000   0.0000  -0.6148
 -10.520  -0.2440   0.01987   0.01283  -0.1830  0.3720  0.0154  -5.3823   0.0000   0.0000   0.0000  -0.6149
 -10.510  -0.2439   0.01982   0.01278  -0.1829  0.3719  0.0154  -5.3792   0.0000   0.0000   0.0000  -0.6152
 -10.500  -0.2437   0.01978   0.01273  -0.1829  0.3719  0.0154  -5.3761   0.0000   0.0000   0.0000  -0.6155
 -10.490  -0.2435   0.01973   0.01269  -0.1829  0.3718  0.0154  -5.3729   0.0000   0.0000   0.0000  -0.6158
 -10.480  -0.2434   0.01969   0.01264  -0.1828  0.3718  0.0154  -5.3697   0.0000   0.0000   0.0000  -0.6161
 -10.470  -0.2432   0.01965   0.01260  -0.1828  0.3717  0.0154  -5.3664   0.0000   0.0000   0.0000  -0.6164
 -10.460  -0.2430   0.01961   0.01256  -0.1827  0.3717  0.0154  -5.3631   0.0000   0.0000   0.0000  -0.6167
 -10.450  -0.2428   0.01957   0.01252  -0.1827  0.3716  0.0154  -5.3597   0.0000   0.0000   0.0000  -0.6170
 -10.440  -0.2426   0.01954   0.01248  -0.1826  0.3715  0.0154  -5.3564   0.0000   0.0000   0.0000  -0.6173
 -10.430  -0.2424   0.01950   0.01244  -0.1825  0.3715  0.0154  -5.3530   0.0000   0.0000   0.0000  -0.6175
 -10.420  -0.2422   0.01947   0.01241  -0.1824  0.3714  0.0154  -5.3496   0.0000   0.0000   0.0000  -0.6178
 -10.410  -0.2420   0.01944   0.01237  -0.1824  0.3714  0.0154  -5.3461   0.0000   0.0000   0.0000  -0.6180
 -10.400  -0.2418   0.01941   0.01234  -0.1823  0.3713  0.0154  -5.3427   0.0000   0.0000   0.0000  -0.6183
 -10.390  -0.2416   0.01938   0.01231  -0.1822  0.3713  0.0154  -5.3392   0.0000   0.0000   0.0000  -0.6185
 -10.380  -0.2414   0.01935   0.01228  -0.1821  0.3712  0.0154  -5.3356   0.0000   0.0000   0.0000  -0.6188
 -10.370  -0.2411   0.01932   0.01225  -0.1820  0.3712  0.0154  -5.3321   0.0000   0.0000   0.0000  -0.6191
 -10.360  -0.2409   0.01929   0.01222  -0.1819  0.3711  0.0154  -5.3285   0.0000   0.0000   0.0000  -0.6195
 -10.350  -0.2406   0.01927   0.01219  -0.1818  0.3711  0.0154  -5.3248   0.0000   0.0000   0.0000  -0.6198
 -10.340  -0.2404   0.01924   0.01216  -0.1817  0.3710  0.0154  -5.3212   0.0000   0.0000   0.0000  -0.6203
 -10.330  -0.2401   0.01921   0.01214  -0.1817  0.3710  0.0154  -5.3175   0.0000   0.0000   0.0000  -0.6207
 -10.320  -0.2398   0.01919   0.01211  -0.1816  0.3709  0.0154  -5.3137   0.0000   0.0000   0.0000  -0.6213
 -10.310  -0.2396   0.01916   0.01208  -0.1815  0.3709  0.0154  -5.3100   0.0000   0.0000   0.0000  -0.6218
 -10.300  -0.2393   0.01914   0.01205  -0.1814  0.3708  0.0154  -5.3062   0.0000   0.0000   0.0000  -0.6224
 -10.290  -0.2389   0.01911   0.01203  -0.1813  0.3708  0.0154  -5.3023   0.0000   0.0000   0.0000  -0.6230
 -10.280  -0.2386   0.01909   0.01200  -0.1812  0.3707  0.0154  -5.2985   0.0000   0.0000   0.0000  -0.6237
 -10.270  -0.2383   0.01906   0.01197  -0.1812  0.3707  0.0154  -5.2946   0.0000   0.0000   0.0000  -0.6244
 -10.260  -0.2380   0.01904   0.01195  -0.1811  0.3707  0.0154  -5.2906   0.0000   0.0000   0.0000  -0.6252
 -10.250  -0.2376   0.01901   0.01192  -0.1810  0.3706  0.0154  -5.2866   0.0000   0.0000   0.0000  -0.6260
 -10.240  -0.2372   0.01899   0.01190  -0.1809  0.3706  0.0154  -5.2826   0.0000   0.0000   0.0000  -0.6269
 -10.230  -0.2369   0.01896   0.01187  -0.1808  0.3705  0.0154  -5.2786   0.0000   0.0000   0.0000  -0.6278
 -10.220  -0.2365   0.01894   0.01185  -0.1808  0.3705  0.0154  -5.2745   0.0000   0.0000   0.0000  -0.6287
 -10.210  -0.2361   0.01892   0.01182  -0.1807  0.3704  0.0154  -5.2705   0.0000   0.0000   0.0000  -0.6297
 -10.200  -0.2357   0.01889   0.01180  -0.1806  0.3704  0.0154  -5.2663   0.0000   0.0000   0.0000  -0.6308
 -10.190  -0.2353   0.01887   0.01177  -0.1805  0.3703  0.0154  -5.2622   0.0000   0.0000   0.0000  -0.6318
 -10.180  -0.2349   0.01885   0.01175  -0.1805  0.3703  0.0154  -5.2580   0.0000   0.0000   0.0000  -0.6329
 -10.170  -0.2344   0.01883   0.01172  -0.1804  0.3702  0.0154  -5.2538   0.0000   0.0000   0.0000  -0.6341
 -10.160  -0.2340   0.01880   0.01170  -0.1803  0.3702  0.0155  -5.2496   0.0000   0.0000   0.0000  -0.6353
 -10.150  -0.2336   0.01878   0.01168  -0.1802  0.3701  0.0155  -5.2453   0.0000   0.0000   0.0000  -0.6365
 -10.140  -0.2331   0.01876   0.01165  -0.1802  0.3701  0.0155  -5.2410   0.0000   0.0000   0.0000  -0.6378
 -10.130  -0.2327   0.01874   0.01163  -0.1801  0.3701  0.0155  -5.2367   0.0000   0.0000   0.0000  -0.6391
 -10.120  -0.2322   0.01872   0.01161  -0.1800  0.3700  0.0155  -5.2324   0.0000   0.0000   0.0000  -0.6405
 -10.110  -0.2317   0.01869   0.01158  -0.1800  0.3700  0.0155  -5.2280   0.0000   0.0000   0.0000  -0.6418
 -10.100  -0.2312   0.01867   0.01156  -0.1799  0.3699  0.0155  -5.2236   0.0000   0.0000   0.0000  -0.6433
 -10.090  -0.2307   0.01865   0.01154  -0.1798  0.3699  0.0155  -5.2192   0.0000   0.0000   0.0000  -0.6447
 -10.080  -0.2302   0.01863   0.01152  -0.1798  0.3698  0.0155  -5.2148   0.0000   0.0000   0.0000  -0.6462
 -10.070  -0.2297   0.01861   0.01149  -0.1797  0.3698  0.0155  -5.2104   0.0000   0.0000   0.0000  -0.6477
 -10.060  -0.2292   0.01859   0.01147  -0.1796  0.3698  0.0155  -5.2059   0.0000   0.0000   0.0000  -0.6493
 -10.050  -0.2287   0.01857   0.01145  -0.1796  0.3697  0.0155  -5.2014   0.0000   0.0000   0.0000  -0.6509
 -10.040  -0.2282   0.01855   0.01143  -0.1795  0.3697  0.0155  -5.1969   0.0000   0.0000   0.0000  -0.6526
 -10.030  -0.2277   0.01853   0.01141  -0.1794  0.3696  0.0155  -5.1924   0.0000   0.0000   0.0000  -0.6542
 -10.020  -0.2271   0.01851   0.01138  -0.1794  0.3696  0.0155  -5.1879   0.0000   0.0000   0.0000  -0.6559
 -10.010  -0.2266   0.01849   0.01136  -0.1793  0.3696  0.0155  -5.1833   0.0000   0.0000   0.0000  -0.6577
 -10.000  -0.2260   0.01847   0.01134  -0.1792  0.3695  0.0155  -5.1788   0.0000   0.0000   0.0000  -0.6595
  -9.990  -0.2255   0.01845   0.01132  -0.1792  0.3695  0.0155  -5.1742   0.0000   0.0000   0.0000  -0.6613
  -9.980  -0.2249   0.01843   0.01130  -0.1791  0.3695  0.0155  -5.1696   0.0000   0.0000   0.0000  -0.6631
  -9.970  -0.2244   0.01841   0.01128  -0.1791  0.3694  0.0155  -5.1649   0.0000   0.0000   0.0000  -0.6650
  -9.960  -0.2238   0.01839   0.01126  -0.1790  0.3694  0.0155  -5.1603   0.0000   0.0000   0.0000  -0.6669
  -9.950  -0.2232   0.01837   0.01124  -0.1789  0.3694  0.0155  -5.1556   0.0000   0.0000   0.0000  -0.6688
  -9.940  -0.2226   0.01835   0.01122  -0.1789  0.3693  0.0155  -5.1509   0.0000   0.0000   0.0000  -0.6708
  -9.930  -0.2221   0.01833   0.01120  -0.1788  0.3693  0.0155  -5.1462   0.0000   0.0000   0.0000  -0.6728
  -9.920  -0.2215   0.01831   0.01118  -0.1788  0.3693  0.0155  -5.1415   0.0000   0.0000   0.0000  -0.6748
  -9.910  -0.2209   0.01829   0.01116  -0.1787  0.3692  0.0155  -5.1368   0.0000   0.0000   0.0000  -0.6769
  -9.900  -0.2203   0.01827   0.01114  -0.1786  0.3692  0.0155  -5.1321   0.0000   0.0000   0.0000  -0.6789
  -9.890  -0.2197   0.01825   0.01112  -0.1786  0.3692  0.0155  -5.1274   0.0000   0.0000   0.0000  -0.6810
  -9.880  -0.2191   0.01823   0.01110  -0.1785  0.3692  0.0155  -5.1227   0.0000   0.0000   0.0000  -0.6831
  -9.870  -0.2185   0.01821   0.01108  -0.1785  0.3691  0.0155  -5.1180   0.0000   0.0000   0.0000  -0.6852
  -9.860  -0.2179   0.01820   0.01106  -0.1784  0.3691  0.0156  -5.1133   0.0000   0.0000   0.0000  -0.6873
  -9.850  -0.2173   0.01818   0.01104  -0.1783  0.3691  0.0156  -5.1085   0.0000   0.0000   0.0000  -0.6894
  -9.840  -0.2167   0.01816   0.01102  -0.1783  0.3691  0.0156  -5.1038   0.0000   0.0000   0.0000  -0.6916
  -9.830  -0.2161   0.01814   0.01100  -0.1782  0.3690  0.0156  -5.0991   0.0000   0.0000   0.0000  -0.6938
  -9.820  -0.2155   0.01812   0.01098  -0.1782  0.3690  0.0156  -5.0943   0.0000   0.0000   0.0000  -0.6960
  -9.810  -0.2149   0.01810   0.01096  -0.1781  0.3690  0.0156  -5.0896   0.0000   0.0000   0.0000  -0.6982
  -9.800  -0.2143   0.01809   0.01094  -0.1780  0.3690  0.0156  -5.0848   0.0000   0.0000   0.0000  -0.7005
  -9.790  -0.2137   0.01807   0.01092  -0.1780  0.3690  0.0156  -5.0800   0.0000   0.0000   0.0000  -0.7028
  -9.780  -0.2131   0.01805   0.01090  -0.1779  0.3689  0.0156  -5.0753   0.0000   0.0000   0.0000  -0.7051
  -9.770  -0.2125   0.01803   0.01089  -0.1779  0.3689  0.0156  -5.0705   0.0000   0.0000   0.0000  -0.7074
  -9.760  -0.2119   0.01802   0.01087  -0.1778  0.3689  0.0156  -5.0657   0.0000   0.0000   0.0000  -0.7098
  -9.750  -0.2113   0.01800   0.01085  -0.1777  0.3689  0.0156  -5.0609   0.0000   0.0000   0.0000  -0.7122
  -9.740  -0.2106   0.01798   0.01083  -0.1777  0.3689  0.0156  -5.0561   0.0000   0.0000   0.0000  -0.7146
  -9.730  -0.2100   0.01796   0.01081  -0.1776  0.3688  0.0156  -5.0512   0.0000   0.0000   0.0000  -0.7170
  -9.720  -0.2094   0.01795   0.01079  -0.1776  0.3688  0.0156  -5.0464   0.0000   0.0000   0.0000  -0.7195
  -9.710  -0.2087   0.01793   0.01078  -0.1775  0.3688  0.0156  -5.0416   0.0000   0.0000   0.0000  -0.7221
  -9.700  -0.2081   0.01791   0.01076  -0.1775  0.3688  0.0156  -5.0367   0.0000   0.0000   0.0000  -0.7246
  -9.690  -0.2075   0.01790   0.01074  -0.1774  0.3687  0.0156  -5.0319   0.0000   0.0000   0.0000  -0.7272
  -9.680  -0.2068   0.01788   0.01072  -0.1773  0.3687  0.0156  -5.0270   0.0000   0.0000   0.0000  -0.7298
  -9.670  -0.2062   0.01786   0.01070  -0.1773  0.3687  0.0156  -5.0221   0.0000   0.0000   0.0000  -0.7325
  -9.660  -0.2055   0.01785   0.01069  -0.1772  0.3687  0.0156  -5.0172   0.0000   0.0000   0.0000  -0.7352
  -9.650  -0.2049   0.01783   0.01067  -0.1772  0.3687  0.0156  -5.0124   0.0000   0.0000   0.0000  -0.7379
  -9.640  -0.2042   0.01781   0.01065  -0.1771  0.3686  0.0157  -5.0075   0.0000   0.0000   0.0000  -0.7407
  -9.630  -0.2035   0.01780   0.01064  -0.1771  0.3686  0.0157  -5.0025   0.0000   0.0000   0.0000  -0.7435
  -9.620  -0.2029   0.01778   0.01062  -0.1770  0.3686  0.0157  -4.9976   0.0000   0.0000   0.0000  -0.7463
  -9.610  -0.2022   0.01777   0.01060  -0.1769  0.3686  0.0157  -4.9927   0.0000   0.0000   0.0000  -0.7492
  -9.600  -0.2015   0.01775   0.01058  -0.1769  0.3686  0.0157  -4.9877   0.0000   0.0000   0.0000  -0.7521
  -9.590  -0.2008   0.01773   0.01057  -0.1768  0.3685  0.0157  -4.9828   0.0000   0.0000   0.0000  -0.7550
  -9.580  -0.2002   0.01772   0.01055  -0.1768  0.3685  0.0157  -4.9778   0.0000   0.0000   0.0000  -0.7580
  -9.570  -0.1995   0.01770   0.01053  -0.1767  0.3685  0.0157  -4.9729   0.0000   0.0000   0.0000  -0.7611
  -9.560  -0.1988   0.01769   0.01052  -0.1767  0.3685  0.0157  -4.9679   0.0000   0.0000   0.0000  -0.7642
  -9.550  -0.1981   0.01767   0.01050  -0.1766  0.3685  0.0157  -4.9629   0.0000   0.0000   0.0000  -0.7673
  -9.540  -0.1974   0.01765   0.01048  -0.1766  0.3684  0.0157  -4.9579   0.0000   0.0000   0.0000  -0.7705
  -9.530  -0.1967   0.01764   0.01047  -0.1765  0.3684  0.0157  -4.9529   0.0000   0.0000   0.0000  -0.7737
  -9.520  -0.1960   0.01762   0.01045  -0.1765  0.3684  0.0157  -4.9479   0.0000   0.0000   0.0000  -0.7769
  -9.510  -0.1953   0.01761   0.01043  -0.1764  0.3684  0.0157  -4.9429   0.0000   0.0000   0.0000  -0.7802
  -9.500  -0.1946   0.01759   0.01042  -0.1764  0.3684  0.0157  -4.9378   0.0000   0.0000   0.0000  -0.7835
  -9.490  -0.1939   0.01758   0.01040  -0.1763  0.3683  0.0157  -4.9328   0.0000   0.0000   0.0000  -0.7869
  -9.480  -0.1932   0.01756   0.01039  -0.1763  0.3683  0.0157  -4.9277   0.0000   0.0000   0.0000  -0.7903
  -9.470  -0.1924   0.01755   0.01037  -0.1762  0.3683  0.0157  -4.9227   0.0000   0.0000   0.0000  -0.7938
  -9.460  -0.1917   0.01753   0.01035  -0.1762  0.3683  0.0157  -4.9176   0.0000   0.0000   0.0000  -0.7973
  -9.450  -0.1910   0.01752   0.01034  -0.1761  0.3682  0.0158  -4.9125   0.0000   0.0000   0.0000  -0.8009
  -9.440  -0.1903   0.01750   0.01032  -0.1761  0.3682  0.0158  -4.9075   0.0000   0.0000   0.0000  -0.8045
  -9.430  -0.1895   0.01749   0.01031  -0.1760  0.3682  0.0158  -4.9024   0.0000   0.0000   0.0000  -0.8082
  -9.420  -0.1888   0.01747   0.01029  -0.1760  0.3682  0.0158  -4.8973   0.0000   0.0000   0.0000  -0.8119
  -9.410  -0.1880   0.01746   0.01027  -0.1759  0.3682  0.0158  -4.8922   0.0000   0.0000   0.0000  -0.8156
  -9.400  -0.1873   0.01744   0.01026  -0.1759  0.3681  0.0158  -4.8871   0.0000   0.0000   0.0000  -0.8194
  -9.390  -0.1866   0.01743   0.01024  -0.1758  0.3681  0.0158  -4.8820   0.0000   0.0000   0.0000  -0.8233
  -9.380  -0.1858   0.01741   0.01023  -0.1758  0.3681  0.0158  -4.8768   0.0000   0.0000   0.0000  -0.8271
  -9.370  -0.1851   0.01740   0.01021  -0.1758  0.3681  0.0158  -4.8717   0.0000   0.0000   0.0000  -0.8311
  -9.360  -0.1843   0.01738   0.01020  -0.1757  0.3681  0.0158  -4.8666   0.0000   0.0000   0.0000  -0.8351
  -9.350  -0.1836   0.01737   0.01018  -0.1757  0.3680  0.0158  -4.8614   0.0000   0.0000   0.0000  -0.8391
  -9.340  -0.1828   0.01736   0.01017  -0.1756  0.3680  0.0158  -4.8563   0.0000   0.0000   0.0000  -0.8432
  -9.330  -0.1820   0.01734   0.01015  -0.1756  0.3680  0.0158  -4.8512   0.0000   0.0000   0.0000  -0.8474
  -9.320  -0.1813   0.01733   0.01014  -0.1755  0.3680  0.0158  -4.8460   0.0000   0.0000   0.0000  -0.8516
  -9.310  -0.1805   0.01731   0.01012  -0.1755  0.3680  0.0158  -4.8408   0.0000   0.0000   0.0000  -0.8558
  -9.300  -0.1797   0.01730   0.01011  -0.1754  0.3679  0.0158  -4.8357   0.0000   0.0000   0.0000  -0.8601
  -9.290  -0.1790   0.01729   0.01009  -0.1754  0.3679  0.0158  -4.8305   0.0000   0.0000   0.0000  -0.8645
  -9.280  -0.1782   0.01727   0.01008  -0.1754  0.3679  0.0159  -4.8253   0.0000   0.0000   0.0000  -0.8689
  -9.270  -0.1774   0.01726   0.01006  -0.1753  0.3679  0.0159  -4.8201   0.0000   0.0000   0.0000  -0.8733
  -9.260  -0.1767   0.01724   0.01005  -0.1753  0.3679  0.0159  -4.8150   0.0000   0.0000   0.0000  -0.8779
  -9.250  -0.1759   0.01723   0.01003  -0.1752  0.3678  0.0159  -4.8098   0.0000   0.0000   0.0000  -0.8824
  -9.240  -0.1751   0.01722   0.01002  -0.1752  0.3678  0.0159  -4.8046   0.0000   0.0000   0.0000  -0.8871
  -9.230  -0.1743   0.01720   0.01000  -0.1751  0.3678  0.0159  -4.7994   0.0000   0.0000   0.0000  -0.8917
  -9.220  -0.1735   0.01719   0.00999  -0.1751  0.3678  0.0159  -4.7942   0.0000   0.0000   0.0000  -0.8965
  -9.210  -0.1727   0.01718   0.00997  -0.1751  0.3678  0.0159  -4.7890   0.0000   0.0000   0.0000  -0.9013
  -9.200  -0.1719   0.01716   0.00996  -0.1750  0.3677  0.0159  -4.7837   0.0000   0.0000   0.0000  -0.9062
  -9.190  -0.1712   0.01715   0.00995  -0.1750  0.3677  0.0159  -4.7785   0.0000   0.0000   0.0000  -0.9111
  -9.180  -0.1704   0.01714   0.00993  -0.1749  0.3677  0.0159  -4.7733   0.0000   0.0000   0.0000  -0.9160
  -9.170  -0.1696   0.01712   0.00992  -0.1749  0.3677  0.0159  -4.7681   0.0000   0.0000   0.0000  -0.9211
  -9.160  -0.1688   0.01711   0.00990  -0.1748  0.3677  0.0159  -4.7629   0.0000   0.0000   0.0000  -0.9262
  -9.150  -0.1680   0.01710   0.00989  -0.1748  0.3676  0.0159  -4.7576   0.0000   0.0000   0.0000  -0.9313
  -9.140  -0.1672   0.01708   0.00988  -0.1748  0.3676  0.0159  -4.7524   0.0000   0.0000   0.0000  -0.9366
  -9.130  -0.1664   0.01707   0.00986  -0.1747  0.3676  0.0159  -4.7472   0.0000   0.0000   0.0000  -0.9418
  -9.120  -0.1656   0.01706   0.00985  -0.1747  0.3676  0.0160  -4.7420   0.0000   0.0000   0.0000  -0.9471
  -9.110  -0.1648   0.01704   0.00983  -0.1746  0.3676  0.0160  -4.7368   0.0000   0.0000   0.0000  -0.9525
  -9.100  -0.1640   0.01703   0.00982  -0.1746  0.3675  0.0160  -4.7315   0.0000   0.0000   0.0000  -0.9579
  -9.090  -0.1632   0.01702   0.00981  -0.1746  0.3675  0.0160  -4.7263   0.0000   0.0000   0.0000  -0.9633
  -9.080  -0.1624   0.01701   0.00979  -0.1745  0.3675  0.0160  -4.7211   0.0000   0.0000   0.0000  -0.9688
  -9.070  -0.1616   0.01699   0.00978  -0.1745  0.3675  0.0160  -4.7159   0.0000   0.0000   0.0000  -0.9744
  -9.060  -0.1608   0.01698   0.00977  -0.1744  0.3675  0.0160  -4.7107   0.0000   0.0000   0.0000  -0.9800
  -9.050  -0.1600   0.01697   0.00975  -0.1744  0.3674  0.0160  -4.7055   0.0000   0.0000   0.0000  -0.9857
  -9.040  -0.1592   0.01696   0.00974  -0.1743  0.3674  0.0160  -4.7003   0.0000   0.0000   0.0000  -0.9914
  -9.030  -0.1584   0.01694   0.00973  -0.1743  0.3674  0.0160  -4.6951   0.0000   0.0000   0.0000  -0.9972
  -9.020  -0.1576   0.01693   0.00971  -0.1743  0.3674  0.0160  -4.6899   0.0000   0.0000   0.0000  -1.0030
  -9.010  -0.1568   0.01692   0.00970  -0.1742  0.3674  0.0160  -4.6847   0.0000   0.0000   0.0000  -1.0089
  -9.000  -0.1560   0.01691   0.00969  -0.1742  0.3673  0.0160  -4.6795   0.0000   0.0000   0.0000  -1.0149
  -8.990  -0.1552   0.01690   0.00967  -0.1741  0.3673  0.0160  -4.6743   0.0000   0.0000   0.0000  -1.0209
  -8.980  -0.1544   0.01688   0.00966  -0.1741  0.3673  0.0160  -4.6691   0.0000   0.0000   0.0000  -1.0270
  -8.970  -0.1536   0.01687   0.00965  -0.1740  0.3673  0.0161  -4.6639   0.0000   0.0000   0.0000  -1.0332
  -8.960  -0.1528   0.01686   0.00964  -0.1740  0.3673  0.0161  -4.6587   0.0000   0.0000   0.0000  -1.0395
  -8.950  -0.1520   0.01685   0.00962  -0.1740  0.3672  0.0161  -4.6535   0.0000   0.0000   0.0000  -1.0458
  -8.940  -0.1512   0.01684   0.00961  -0.1739  0.3672  0.0161  -4.6483   0.0000   0.0000   0.0000  -1.0522
  -8.930  -0.1504   0.01682   0.00960  -0.1739  0.3672  0.0161  -4.6431   0.0000   0.0000   0.0000  -1.0587
  -8.920  -0.1496   0.01681   0.00959  -0.1738  0.3672  0.0161  -4.6379   0.0000   0.0000   0.0000  -1.0653
  -8.910  -0.1488   0.01680   0.00957  -0.1738  0.3672  0.0161  -4.6327   0.0000   0.0000   0.0000  -1.0719
  -8.900  -0.1480   0.01679   0.00956  -0.1737  0.3671  0.0161  -4.6274   0.0000   0.0000   0.0000  -1.0787
  -8.890  -0.1472   0.01678   0.00955  -0.1737  0.3671  0.0161  -4.6222   0.0000   0.0000   0.0000  -1.0855
  -8.880  -0.1463   0.01677   0.00954  -0.1737  0.3671  0.0161  -4.6170   0.0000   0.0000   0.0000  -1.0924
  -8.870  -0.1455   0.01675   0.00952  -0.1736  0.3671  0.0161  -4.6118   0.0000   0.0000   0.0000  -1.0995
  -8.860  -0.1447   0.01674   0.00951  -0.1736  0.3671  0.0161  -4.6066   0.0000   0.0000   0.0000  -1.1066
  -8.850  -0.1439   0.01673   0.00950  -0.1735  0.3671  0.0161  -4.6014   0.0000   0.0000   0.0000  -1.1138
  -8.840  -0.1431   0.01672   0.00949  -0.1735  0.3670  0.0161  -4.5961   0.0000   0.0000   0.0000  -1.1211
  -8.830  -0.1422   0.01671   0.00948  -0.1734  0.3670  0.0161  -4.5909   0.0000   0.0000   0.0000  -1.1285
  -8.820  -0.1414   0.01670   0.00946  -0.1734  0.3670  0.0161  -4.5857   0.0000   0.0000   0.0000  -1.1360
  -8.810  -0.1406   0.01669   0.00945  -0.1734  0.3670  0.0162  -4.5804   0.0000   0.0000   0.0000  -1.1436
  -8.800  -0.1398   0.01668   0.00944  -0.1733  0.3670  0.0162  -4.5752   0.0000   0.0000   0.0000  -1.1513
  -8.790  -0.1390   0.01666   0.00943  -0.1733  0.3669  0.0162  -4.5700   0.0000   0.0000   0.0000  -1.1591
  -8.780  -0.1381   0.01665   0.00942  -0.1732  0.3669  0.0162  -4.5647   0.0000   0.0000   0.0000  -1.1671
  -8.770  -0.1373   0.01664   0.00940  -0.1732  0.3669  0.0162  -4.5595   0.0000   0.0000   0.0000  -1.1751
  -8.760  -0.1365   0.01663   0.00939  -0.1732  0.3669  0.0162  -4.5543   0.0000   0.0000   0.0000  -1.1833
  -8.750  -0.1356   0.01662   0.00938  -0.1731  0.3669  0.0162  -4.5490   0.0000   0.0000   0.0000  -1.1916
  -8.740  -0.1348   0.01661   0.00937  -0.1731  0.3668  0.0162  -4.5438   0.0000   0.0000   0.0000  -1.2000
  -8.730  -0.1340   0.01660   0.00936  -0.1730  0.3668  0.0162  -4.5385   0.0000   0.0000   0.0000  -1.2085
  -8.720  -0.1331   0.01659   0.00935  -0.1730  0.3668  0.0162  -4.5333   0.0000   0.0000   0.0000  -1.2172
  -8.710  -0.1323   0.01658   0.00933  -0.1730  0.3668  0.0162  -4.5280   0.0000   0.0000   0.0000  -1.2260
  -8.700  -0.1314   0.01657   0.00932  -0.1729  0.3668  0.0162  -4.5228   0.0000   0.0000   0.0000  -1.2350
  -8.690  -0.1306   0.01656   0.00931  -0.1729  0.3668  0.0162  -4.5175   0.0000   0.0000   0.0000  -1.2441
  -8.680  -0.1297   0.01655   0.00930  -0.1728  0.3667  0.0162  -4.5122   0.0000   0.0000   0.0000  -1.2533
  -8.670  -0.1289   0.01654   0.00929  -0.1728  0.3667  0.0162  -4.5070   0.0000   0.0000   0.0000  -1.2627
  -8.660  -0.1280   0.01653   0.00928  -0.1728  0.3667  0.0162  -4.5017   0.0000   0.0000   0.0000  -1.2722
  -8.650  -0.1272   0.01652   0.00927  -0.1727  0.3667  0.0163  -4.4964   0.0000   0.0000   0.0000  -1.2819
  -8.640  -0.1263   0.01651   0.00926  -0.1727  0.3667  0.0163  -4.4912   0.0000   0.0000   0.0000  -1.2917
  -8.630  -0.1255   0.01650   0.00925  -0.1727  0.3666  0.0163  -4.4859   0.0000   0.0000   0.0000  -1.3017
  -8.620  -0.1246   0.01649   0.00923  -0.1726  0.3666  0.0163  -4.4806   0.0000   0.0000   0.0000  -1.3118
  -8.610  -0.1237   0.01648   0.00922  -0.1726  0.3666  0.0163  -4.4753   0.0000   0.0000   0.0000  -1.3222
  -8.600  -0.1229   0.01647   0.00921  -0.1726  0.3666  0.0163  -4.4700   0.0000   0.0000   0.0000  -1.3326
  -8.590  -0.1220   0.01646   0.00920  -0.1725  0.3666  0.0163  -4.4647   0.0000   0.0000   0.0000  -1.3433
  -8.580  -0.1212   0.01645   0.00919  -0.1725  0.3666  0.0163  -4.4594   0.0000   0.0000   0.0000  -1.3541
  -8.570  -0.1203   0.01644   0.00918  -0.1724  0.3665  0.0163  -4.4542   0.0000   0.0000   0.0000  -1.3652
  -8.560  -0.1194   0.01643   0.00917  -0.1724  0.3665  0.0163  -4.4489   0.0000   0.0000   0.0000  -1.3763
  -8.550  -0.1186   0.01642   0.00916  -0.1724  0.3665  0.0163  -4.4436   0.0000   0.0000   0.0000  -1.3877
  -8.540  -0.1177   0.01641   0.00915  -0.1723  0.3665  0.0163  -4.4383   0.0000   0.0000   0.0000  -1.3993
  -8.530  -0.1168   0.01640   0.00914  -0.1723  0.3665  0.0163  -4.4330   0.0000   0.0000   0.0000  -1.4111
  -8.520  -0.1159   0.01639   0.00913  -0.1723  0.3664  0.0163  -4.4277   0.0000   0.0000   0.0000  -1.4231
  -8.510  -0.1151   0.01638   0.00912  -0.1722  0.3664  0.0163  -4.4224   0.0000   0.0000   0.0000  -1.4352
  -8.500  -0.1142   0.01637   0.00911  -0.1722  0.3664  0.0163  -4.4171   0.0000   0.0000   0.0000  -1.4476
  -8.490  -0.1133   0.01636   0.00910  -0.1722  0.3664  0.0163  -4.4118   0.0000   0.0000   0.0000  -1.4602
  -8.480  -0.1124   0.01635   0.00909  -0.1721  0.3664  0.0164  -4.4065   0.0000   0.0000   0.0000  -1.4731
  -8.470  -0.1115   0.01634   0.00908  -0.1721  0.3664  0.0164  -4.4011   0.0000   0.0000   0.0000  -1.4861
  -8.460  -0.1106   0.01633   0.00907  -0.1721  0.3663  0.0164  -4.3958   0.0000   0.0000   0.0000  -1.4994
  -8.450  -0.1098   0.01632   0.00906  -0.1720  0.3663  0.0164  -4.3905   0.0000   0.0000   0.0000  -1.5129
  -8.440  -0.1089   0.01631   0.00905  -0.1720  0.3663  0.0164  -4.3852   0.0000   0.0000   0.0000  -1.5267
  -8.430  -0.1080   0.01630   0.00904  -0.1720  0.3663  0.0164  -4.3799   0.0000   0.0000   0.0000  -1.5407
  -8.420  -0.1071   0.01629   0.00903  -0.1719  0.3663  0.0164  -4.3746   0.0000   0.0000   0.0000  -1.5550
  -8.410  -0.1062   0.01629   0.00902  -0.1719  0.3663  0.0164  -4.3693   0.0000   0.0000   0.0000  -1.5696
  -8.400  -0.1053   0.01628   0.00901  -0.1719  0.3662  0.0164  -4.3640   0.0000   0.0000   0.0000  -1.5844
  -8.390  -0.1044   0.01627   0.00900  -0.1718  0.3662  0.0164  -4.3586   0.0000   0.0000   0.0000  -1.5996
  -8.380  -0.1035   0.01626   0.00899  -0.1718  0.3662  0.0164  -4.3533   0.0000   0.0000   0.0000  -1.6151
  -8.370  -0.1026   0.01625   0.00898  -0.1718  0.3662  0.0164  -4.3480   0.0000   0.0000   0.0000  -1.6308
  -8.360  -0.1017   0.01624   0.00897  -0.1717  0.3662  0.0164  -4.3426   0.0000   0.0000   0.0000  -1.6469
  -8.350  -0.1008   0.01623   0.00896  -0.1717  0.3662  0.0164  -4.3373   0.0000   0.0000   0.0000  -1.6633
  -8.340  -0.0999   0.01622   0.00895  -0.1717  0.3662  0.0164  -4.3320   0.0000   0.0000   0.0000  -1.6800
  -8.330  -0.0990   0.01621   0.00894  -0.1716  0.3661  0.0164  -4.3266   0.0000   0.0000   0.0000  -1.6971
  -8.320  -0.0981   0.01620   0.00893  -0.1716  0.3661  0.0164  -4.3213   0.0000   0.0000   0.0000  -1.7144
  -8.310  -0.0972   0.01620   0.00892  -0.1716  0.3661  0.0164  -4.3160   0.0000   0.0000   0.0000  -1.7322
  -8.300  -0.0963   0.01619   0.00891  -0.1716  0.3661  0.0164  -4.3106   0.0000   0.0000   0.0000  -1.7502
  -8.290  -0.0954   0.01618   0.00890  -0.1715  0.3661  0.0164  -4.3053   0.0000   0.0000   0.0000  -1.7687
  -8.280  -0.0945   0.01617   0.00889  -0.1715  0.3661  0.0165  -4.3000   0.0000   0.0000   0.0000  -1.7875
  -8.270  -0.0935   0.01616   0.00888  -0.1715  0.3661  0.0165  -4.2946   0.0000   0.0000   0.0000  -1.8067
  -8.260  -0.0926   0.01615   0.00887  -0.1714  0.3660  0.0165  -4.2893   0.0000   0.0000   0.0000  -1.8263
  -8.250  -0.0917   0.01614   0.00886  -0.1714  0.3660  0.0165  -4.2839   0.0000   0.0000   0.0000  -1.8464
  -8.240  -0.0908   0.01614   0.00885  -0.1714  0.3660  0.0165  -4.2786   0.0000   0.0000   0.0000  -1.8668
  -8.230  -0.0899   0.01613   0.00885  -0.1713  0.3660  0.0165  -4.2733   0.0000   0.0000   0.0000  -1.8876
  -8.220  -0.0890   0.01612   0.00884  -0.1713  0.3660  0.0165  -4.2680   0.0000   0.0000   0.0000  -1.9088
  -8.210  -0.0881   0.01611   0.00883  -0.1713  0.3660  0.0165  -4.2626   0.0000   0.0000   0.0000  -1.9305
  -8.200  -0.0872   0.01610   0.00882  -0.1712  0.3660  0.0165  -4.2573   0.0000   0.0000   0.0000  -1.9526
  -8.190  -0.0862   0.01609   0.00881  -0.1712  0.3659  0.0165  -4.2520   0.0000   0.0000   0.0000  -1.9751
  -8.180  -0.0853   0.01609   0.00880  -0.1712  0.3659  0.0165  -4.2467   0.0000   0.0000   0.0000  -1.9981
  -8.170  -0.0844   0.01608   0.00879  -0.1712  0.3659  0.0165  -4.2414   0.0000   0.0000   0.0000  -2.0216
  -8.160  -0.0835   0.01607   0.00878  -0.1711  0.3659  0.0165  -4.2361   0.0000   0.0000   0.0000  -2.0456
  -8.150  -0.0826   0.01606   0.00877  -0.1711  0.3659  0.0165  -4.2308   0.0000   0.0000   0.0000  -2.0702
  -8.140  -0.0817   0.01605   0.00877  -0.1711  0.3659  0.0165  -4.2255   0.0000   0.0000   0.0000  -2.0952
  -8.130  -0.0808   0.01605   0.00876  -0.1710  0.3659  0.0165  -4.2202   0.0000   0.0000   0.0000  -2.1208
  -8.120  -0.0799   0.01604   0.00875  -0.1710  0.3658  0.0165  -4.2149   0.0000   0.0000   0.0000  -2.1470
  -8.110  -0.0790   0.01603   0.00874  -0.1710  0.3658  0.0165  -4.2097   0.0000   0.0000   0.0000  -2.1739
  -8.100  -0.0781   0.01602   0.00873  -0.1709  0.3658  0.0165  -4.2044   0.0000   0.0000   0.0000  -2.2013
  -8.090  -0.0772   0.01601   0.00872  -0.1709  0.3658  0.0165  -4.1991   0.0000   0.0000   0.0000  -2.2294
  -8.080  -0.0762   0.01601   0.00871  -0.1709  0.3658  0.0165  -4.1938   0.0000   0.0000   0.0000  -2.2581
  -8.070  -0.0753   0.01600   0.00871  -0.1708  0.3658  0.0165  -4.1885   0.0000   0.0000   0.0000  -2.2876
  -8.060  -0.0744   0.01599   0.00870  -0.1708  0.3658  0.0165  -4.1833   0.0000   0.0000   0.0000  -2.3177
  -8.050  -0.0735   0.01598   0.00869  -0.1708  0.3657  0.0165  -4.1780   0.0000   0.0000   0.0000  -2.3487
  -8.040  -0.0726   0.01598   0.00868  -0.1707  0.3657  0.0165  -4.1727   0.0000   0.0000   0.0000  -2.3804
  -8.030  -0.0717   0.01597   0.00867  -0.1707  0.3657  0.0165  -4.1675   0.0000   0.0000   0.0000  -2.4129
  -8.020  -0.0708   0.01596   0.00867  -0.1707  0.3657  0.0166  -4.1622   0.0000   0.0000   0.0000  -2.4463
  -8.010  -0.0699   0.01595   0.00866  -0.1706  0.3657  0.0166  -4.1569   0.0000   0.0000   0.0000  -2.4806
  -8.000  -0.0690   0.01595   0.00865  -0.1706  0.3657  0.0166  -4.1517   0.0000   0.0000   0.0000  -2.5158
  -7.990  -0.0680   0.01594   0.00864  -0.1706  0.3657  0.0166  -4.1464   0.0000   0.0000   0.0000  -2.5519
  -7.980  -0.0671   0.01593   0.00863  -0.1705  0.3656  0.0166  -4.1411   0.0000   0.0000   0.0000  -2.5891
  -7.970  -0.0662   0.01593   0.00863  -0.1705  0.3656  0.0166  -4.1359   0.0000   0.0000   0.0000  -2.6273
  -7.960  -0.0653   0.01592   0.00862  -0.1705  0.3656  0.0166  -4.1306   0.0000   0.0000   0.0000  -2.6666
  -7.950  -0.0644   0.01591   0.00861  -0.1704  0.3656  0.0166  -4.1254   0.0000   0.0000   0.0000  -2.7071
  -7.940  -0.0635   0.01590   0.00860  -0.1704  0.3656  0.0166  -4.1201   0.0000   0.0000   0.0000  -2.7488
  -7.930  -0.0626   0.01590   0.00859  -0.1704  0.3656  0.0166  -4.1148   0.0000   0.0000   0.0000  -2.7917
  -7.920  -0.0616   0.01589   0.00859  -0.1704  0.3656  0.0166  -4.1096   0.0000   0.0000   0.0000  -2.8359
  -7.910  -0.0607   0.01588   0.00858  -0.1703  0.3655  0.0166  -4.1043   0.0000   0.0000   0.0000  -2.8815
  -7.900  -0.0598   0.01588   0.00857  -0.1703  0.3655  0.0166  -4.0991   0.0000   0.0000   0.0000  -2.9285
  -7.890  -0.0589   0.01587   0.00856  -0.1703  0.3655  0.0166  -4.0938   0.0000   0.0000   0.0000  -2.9771
  -7.880  -0.0580   0.01586   0.00856  -0.1702  0.3655  0.0166  -4.0885   0.0000   0.0000   0.0000  -3.0272
  -7.870  -0.0571   0.01585   0.00855  -0.1702  0.3655  0.0166  -4.0833   0.0000   0.0000   0.0000  -3.0790
  -7.860  -0.0561   0.01585   0.00854  -0.1702  0.3655  0.0166  -4.0780   0.0000   0.0000   0.0000  -3.1324
  -7.850  -0.0552   0.01584   0.00853  -0.1701  0.3654  0.0166  -4.0728   0.0000   0.0000   0.0000  -3.1877
  -7.840  -0.0543   0.01583   0.00852  -0.1701  0.3654  0.0166  -4.0675   0.0000   0.0000   0.0000  -3.2449
  -7.830  -0.0534   0.01583   0.00852  -0.1701  0.3654  0.0166  -4.0623   0.0000   0.0000   0.0000  -3.3041
  -7.820  -0.0524   0.01582   0.00851  -0.1700  0.3654  0.0166  -4.0570   0.0000   0.0000   0.0000  -3.3654
  -7.810  -0.0515   0.01581   0.00850  -0.1700  0.3654  0.0166  -4.0518   0.0000   0.0000   0.0000  -3.4291
  -7.800  -0.0506   0.01581   0.00849  -0.1700  0.3654  0.0166  -4.0465   0.0000   0.0000   0.0000  -3.4951
  -7.790  -0.0497   0.01580   0.00849  -0.1700  0.3654  0.0166  -4.0413   0.0000   0.0000   0.0000  -3.5636
  -7.780  -0.0487   0.01579   0.00848  -0.1699  0.3653  0.0166  -4.0360   0.0000   0.0000   0.0000  -3.6348
  -7.770  -0.0478   0.01579   0.00847  -0.1699  0.3653  0.0166  -4.0308   0.0000   0.0000   0.0000  -3.7089
  -7.760  -0.0469   0.01578   0.00847  -0.1699  0.3653  0.0166  -4.0255   0.0000   0.0000   0.0000  -3.7859
  -7.750  -0.0460   0.01577   0.00846  -0.1698  0.3653  0.0166  -4.0203   0.0000   0.0000   0.0000  -3.8661
  -7.740  -0.0450   0.01577   0.00845  -0.1698  0.3653  0.0166  -4.0151   0.0000   0.0000   0.0000  -3.9497
  -7.730  -0.0441   0.01576   0.00844  -0.1698  0.3653  0.0166  -4.0098   0.0000   0.0000   0.0000  -4.0369
  -7.720  -0.0432   0.01575   0.00844  -0.1697  0.3653  0.0166  -4.0046   0.0000   0.0000   0.0000  -4.1280
  -7.710  -0.0422   0.01575   0.00843  -0.1697  0.3652  0.0167  -3.9993   0.0000   0.0000   0.0000  -4.2232
  -7.700  -0.0413   0.01574   0.00842  -0.1697  0.3652  0.0167  -3.9941   0.0000   0.0000   0.0000  -4.3227
  -7.690  -0.0404   0.01573   0.00841  -0.1697  0.3652  0.0167  -3.9888   0.0000   0.0000   0.0000  -4.4270
  -7.680  -0.0394   0.01573   0.00841  -0.1696  0.3652  0.0167  -3.9836   0.0000   0.0000   0.0000  -4.5363
  -7.670  -0.0385   0.01572   0.00840  -0.1696  0.3652  0.0167  -3.9783   0.0000   0.0000   0.0000  -4.6510
  -7.660  -0.0376   0.01571   0.00839  -0.1696  0.3652  0.0167  -3.9731   0.0000   0.0000   0.0000  -4.7715
  -7.650  -0.0366   0.01571   0.00839  -0.1695  0.3652  0.0167  -3.9678   0.0000   0.0000   0.0000  -4.8982
  -7.640  -0.0357   0.01570   0.00838  -0.1695  0.3651  0.0167  -3.9626   0.0000   0.0000   0.0000  -5.0318
  -7.630  -0.0348   0.01570   0.00837  -0.1695  0.3651  0.0167  -3.9574   0.0000   0.0000   0.0000  -5.1726
  -7.620  -0.0338   0.01569   0.00837  -0.1694  0.3651  0.0167  -3.9521   0.0000   0.0000   0.0000  -5.3214
  -7.610  -0.0329   0.01568   0.00836  -0.1694  0.3651  0.0167  -3.9469   0.0000   0.0000   0.0000  -5.4789
  -7.600  -0.0319   0.01568   0.00835  -0.1694  0.3651  0.0167  -3.9416   0.0000   0.0000   0.0000  -5.6457
  -7.590  -0.0310   0.01567   0.00834  -0.1694  0.3651  0.0167  -3.9364   0.0000   0.0000   0.0000  -5.8228
  -7.580  -0.0301   0.01566   0.00834  -0.1693  0.3651  0.0167  -3.9312   0.0000   0.0000   0.0000  -6.0111
  -7.570  -0.0291   0.01566   0.00833  -0.1693  0.3650  0.0167  -3.9259   0.0000   0.0000   0.0000  -6.2118
  -7.560  -0.0282   0.01565   0.00832  -0.1693  0.3650  0.0167  -3.9207   0.0000   0.0000   0.0000  -6.4260
  -7.550  -0.0272   0.01565   0.00832  -0.1692  0.3650  0.0167  -3.9154   0.0000   0.0000   0.0000  -6.6553
  -7.540  -0.0263   0.01564   0.00831  -0.1692  0.3650  0.0167  -3.9102   0.0000   0.0000   0.0000  -6.9012
  -7.530  -0.0253   0.01563   0.00830  -0.1692  0.3650  0.0167  -3.9050   0.0000   0.0000   0.0000  -7.1657
  -7.520  -0.0244   0.01563   0.00830  -0.1692  0.3650  0.0167  -3.8997   0.0000   0.0000   0.0000  -7.4508
  -7.510  -0.0234   0.01562   0.00829  -0.1691  0.3649  0.0167  -3.8945   0.0000   0.0000   0.0000  -7.7592
  -7.500  -0.0225   0.01562   0.00828  -0.1691  0.3649  0.0167  -3.8893   0.0000   0.0000   0.0000  -8.0937
  -7.490  -0.0216   0.01561   0.00828  -0.1691  0.3649  0.0167  -3.8840   0.0000   0.0000   0.0000  -8.4579
  -7.480  -0.0206   0.01560   0.00827  -0.1691  0.3649  0.0167  -3.8788   0.0000   0.0000   0.0000  -8.8558
  -7.470  -0.0197   0.01560   0.00826  -0.1690  0.3649  0.0167  -3.8736   0.0000   0.0000   0.0000  -9.2924
  -7.460  -0.0187   0.01559   0.00826  -0.1690  0.3649  0.0167  -3.8684   0.0000   0.0000   0.0000  -9.7736
  -7.450  -0.0178   0.01559   0.00825  -0.1690  0.3649  0.0167  -3.8631   0.0000   0.0000   0.0000  -10.3066
  -7.440  -0.0168   0.01558   0.00824  -0.1689  0.3648  0.0167  -3.8579   0.0000   0.0000   0.0000  -10.9003
  -7.430  -0.0159   0.01557   0.00824  -0.1689  0.3648  0.0167  -3.8527   0.0000   0.0000   0.0000  -11.5655
  -7.420  -0.0149   0.01557   0.00823  -0.1689  0.3648  0.0167  -3.8475   0.0000   0.0000   0.0000  -12.3160
  -7.410  -0.0139   0.01556   0.00823  -0.1689  0.3648  0.0167  -3.8422   0.0000   0.0000   0.0000  -13.1695
  -7.400  -0.0130   0.01556   0.00822  -0.1688  0.3648  0.0168  -3.8370   0.0000   0.0000   0.0000  -14.1485
  -7.390  -0.0120   0.01555   0.00821  -0.1688  0.3648  0.0168  -3.8318   0.0000   0.0000   0.0000  -15.2830
  -7.380  -0.0111   0.01554   0.00821  -0.1688  0.3648  0.0168  -3.8266   0.0000   0.0000   0.0000  -16.6132
  -7.370  -0.0101   0.01554   0.00820  -0.1687  0.3647  0.0168  -3.8214   0.0000   0.0000   0.0000  -18.1944
  -7.360  -0.0092   0.01553   0.00819  -0.1687  0.3647  0.0168  -3.8162   0.0000   0.0000   0.0000  -20.1028
  -7.350  -0.0082   0.01553   0.00819  -0.1687  0.3647  0.0168  -3.8110   0.0000   0.0000   0.0000  -22.4507
  -7.340  -0.0073   0.01552   0.00818  -0.1687  0.3647  0.0168  -3.8057   0.0000   0.0000   0.0000  -25.4099
  -7.330  -0.0063   0.01552   0.00818  -0.1686  0.3647  0.0168  -3.8006   0.0000   0.0000   0.0000  -29.2551
  -7.320  -0.0054   0.01551   0.00817  -0.1686  0.3647  0.0168  -3.7954   0.0000   0.0000   0.0000  -34.4543
  -7.310  -0.0044   0.01551   0.00816  -0.1686  0.3646  0.0168  -3.7902   0.0000   0.0000   0.0000  -41.8761
  -7.300  -0.0035   0.01550   0.00816  -0.1686  0.3646  0.0168  -3.7850   0.0000   0.0000   0.0000  -53.3335
  -7.290  -0.0025   0.01549   0.00815  -0.1685  0.3646  0.0168  -3.7798   0.0000   0.0000   0.0000  -73.3481
  -7.280  -0.0016   0.01549   0.00814  -0.1685  0.3646  0.0168  -3.7746   0.0000   0.0000   0.0000  -117.2232
  -7.270  -0.0006   0.01548   0.00814  -0.1685  0.3646  0.0168  -3.7695   0.0000   0.0000   0.0000  -290.6133
  -7.260   0.0003   0.01548   0.00813  -0.1684  0.3646  0.0168  -3.7643   0.0000   0.0000   0.0000  611.2943
  -7.250   0.0013   0.01547   0.00813  -0.1684  0.3646  0.0168  -3.7591   0.0000   0.0000   0.0000  149.2497
  -7.240   0.0022   0.01547   0.00812  -0.1684  0.3645  0.0168  -3.7540   0.0000   0.0000   0.0000  85.0902
  -7.230   0.0031   0.01546   0.00812  -0.1684  0.3645  0.0168  -3.7488   0.0000   0.0000   0.0000  59.5510
  -7.220   0.0041   0.01546   0.00811  -0.1683  0.3645  0.0168  -3.7437   0.0000   0.0000   0.0000  45.8279
  -7.210   0.0050   0.01545   0.00810  -0.1683  0.3645  0.0168  -3.7385   0.0000   0.0000   0.0000  37.2608
  -7.200   0.0060   0.01545   0.00810  -0.1683  0.3645  0.0168  -3.7334   0.0000   0.0000   0.0000  31.4031
  -7.190   0.0069   0.01544   0.00809  -0.1682  0.3645  0.0168  -3.7282   0.0000   0.0000   0.0000  27.1449
  -7.180   0.0079   0.01544   0.00809  -0.1682  0.3644  0.0168  -3.7231   0.0000   0.0000   0.0000  23.9096
  -7.170   0.0088   0.01543   0.00808  -0.1682  0.3644  0.0168  -3.7180   0.0000   0.0000   0.0000  21.3680
  -7.160   0.0097   0.01543   0.00808  -0.1681  0.3644  0.0168  -3.7128   0.0000   0.0000   0.0000  19.3186
  -7.150   0.0107   0.01542   0.00807  -0.1681  0.3644  0.0168  -3.7077   0.0000   0.0000   0.0000  17.6308
  -7.140   0.0116   0.01542   0.00806  -0.1681  0.3644  0.0168  -3.7026   0.0000   0.0000   0.0000  16.2167
  -7.130   0.0126   0.01541   0.00806  -0.1681  0.3644  0.0168  -3.6974   0.0000   0.0000   0.0000  15.0146
  -7.120   0.0135   0.01541   0.00805  -0.1680  0.3644  0.0168  -3.6923   0.0000   0.0000   0.0000  13.9802
  -7.110   0.0145   0.01540   0.00805  -0.1680  0.3643  0.0169  -3.6872   0.0000   0.0000   0.0000  13.0806
  -7.100   0.0154   0.01540   0.00804  -0.1680  0.3643  0.0169  -3.6821   0.0000   0.0000   0.0000  12.2910
  -7.090   0.0163   0.01539   0.00804  -0.1679  0.3643  0.0169  -3.6770   0.0000   0.0000   0.0000  11.5924
  -7.080   0.0173   0.01539   0.00803  -0.1679  0.3643  0.0169  -3.6718   0.0000   0.0000   0.0000  10.9699
  -7.070   0.0182   0.01538   0.00803  -0.1679  0.3643  0.0169  -3.6667   0.0000   0.0000   0.0000  10.4117
  -7.060   0.0192   0.01538   0.00802  -0.1679  0.3643  0.0169  -3.6616   0.0000   0.0000   0.0000   9.9085
  -7.050   0.0201   0.01537   0.00802  -0.1678  0.3642  0.0169  -3.6565   0.0000   0.0000   0.0000   9.4525
  -7.040   0.0211   0.01537   0.00801  -0.1678  0.3642  0.0169  -3.6514   0.0000   0.0000   0.0000   9.0373
  -7.030   0.0220   0.01536   0.00801  -0.1678  0.3642  0.0169  -3.6463   0.0000   0.0000   0.0000   8.6575
  -7.020   0.0229   0.01536   0.00800  -0.1677  0.3642  0.0169  -3.6412   0.0000   0.0000   0.0000   8.3088
  -7.010   0.0239   0.01535   0.00799  -0.1677  0.3642  0.0169  -3.6361   0.0000   0.0000   0.0000   7.9876
  -7.000   0.0248   0.01535   0.00799  -0.1677  0.3642  0.0169  -3.6310   0.0000   0.0000   0.0000   7.6907
  -6.990   0.0258   0.01535   0.00798  -0.1676  0.3642  0.0169  -3.6259   0.0000   0.0000   0.0000   7.4155
  -6.980   0.0267   0.01534   0.00798  -0.1676  0.3641  0.0169  -3.6208   0.0000   0.0000   0.0000   7.1599
  -6.970   0.0277   0.01534   0.00797  -0.1676  0.3641  0.0169  -3.6157   0.0000   0.0000   0.0000   6.9219
  -6.960   0.0286   0.01533   0.00797  -0.1676  0.3641  0.0169  -3.6106   0.0000   0.0000   0.0000   6.6996
  -6.950   0.0296   0.01533   0.00796  -0.1675  0.3641  0.0169  -3.6055   0.0000   0.0000   0.0000   6.4914
  -6.940   0.0305   0.01532   0.00796  -0.1675  0.3641  0.0169  -3.6005   0.0000   0.0000   0.0000   6.2961
  -6.930   0.0315   0.01532   0.00795  -0.1675  0.3641  0.0169  -3.5954   0.0000   0.0000   0.0000   6.1124
  -6.920   0.0324   0.01531   0.00795  -0.1674  0.3640  0.0169  -3.5903   0.0000   0.0000   0.0000   5.9394
  -6.910   0.0333   0.01531   0.00794  -0.1674  0.3640  0.0169  -3.5852   0.0000   0.0000   0.0000   5.7761
  -6.900   0.0343   0.01530   0.00794  -0.1674  0.3640  0.0169  -3.5801   0.0000   0.0000   0.0000   5.6218
  -6.890   0.0352   0.01530   0.00793  -0.1674  0.3640  0.0169  -3.5751   0.0000   0.0000   0.0000   5.4757
  -6.880   0.0362   0.01530   0.00793  -0.1673  0.3640  0.0169  -3.5700   0.0000   0.0000   0.0000   5.3373
  -6.870   0.0371   0.01529   0.00792  -0.1673  0.3639  0.0169  -3.5649   0.0000   0.0000   0.0000   5.2058
  -6.860   0.0381   0.01529   0.00792  -0.1673  0.3639  0.0169  -3.5599   0.0000   0.0000   0.0000   5.0808
  -6.850   0.0390   0.01528   0.00791  -0.1672  0.3639  0.0169  -3.5548   0.0000   0.0000   0.0000   4.9619
  -6.840   0.0400   0.01528   0.00791  -0.1672  0.3639  0.0169  -3.5497   0.0000   0.0000   0.0000   4.8485
  -6.830   0.0409   0.01527   0.00790  -0.1672  0.3639  0.0169  -3.5446   0.0000   0.0000   0.0000   4.7404
  -6.820   0.0419   0.01527   0.00790  -0.1672  0.3638  0.0170  -3.5396   0.0000   0.0000   0.0000   4.6372
  -6.810   0.0428   0.01527   0.00789  -0.1671  0.3638  0.0170  -3.5345   0.0000   0.0000   0.0000   4.5384
  -6.800   0.0438   0.01526   0.00789  -0.1671  0.3638  0.0170  -3.5295   0.0000   0.0000   0.0000   4.4440
  -6.790   0.0447   0.01526   0.00789  -0.1671  0.3638  0.0170  -3.5244   0.0000   0.0000   0.0000   4.3535
  -6.780   0.0457   0.01525   0.00788  -0.1670  0.3637  0.0170  -3.5193   0.0000   0.0000   0.0000   4.2668
  -6.770   0.0466   0.01525   0.00788  -0.1670  0.3637  0.0170  -3.5143   0.0000   0.0000   0.0000   4.1835
  -6.760   0.0476   0.01525   0.00787  -0.1670  0.3637  0.0170  -3.5092   0.0000   0.0000   0.0000   4.1036
  -6.750   0.0485   0.01524   0.00787  -0.1670  0.3637  0.0170  -3.5042   0.0000   0.0000   0.0000   4.0268
  -6.740   0.0495   0.01524   0.00786  -0.1669  0.3636  0.0170  -3.4991   0.0000   0.0000   0.0000   3.9529
  -6.730   0.0504   0.01523   0.00786  -0.1669  0.3636  0.0170  -3.4941   0.0000   0.0000   0.0000   3.8817
  -6.720   0.0514   0.01523   0.00785  -0.1669  0.3636  0.0170  -3.4890   0.0000   0.0000   0.0000   3.8132
  -6.710   0.0524   0.01522   0.00785  -0.1668  0.3636  0.0170  -3.4840   0.0000   0.0000   0.0000   3.7472
  -6.700   0.0533   0.01522   0.00784  -0.1668  0.3635  0.0170  -3.4790   0.0000   0.0000   0.0000   3.6835
  -6.690   0.0543   0.01522   0.00784  -0.1668  0.3635  0.0170  -3.4739   0.0000   0.0000   0.0000   3.6221
  -6.680   0.0552   0.01521   0.00783  -0.1668  0.3635  0.0170  -3.4689   0.0000   0.0000   0.0000   3.5627
  -6.670   0.0562   0.01521   0.00783  -0.1667  0.3635  0.0170  -3.4638   0.0000   0.0000   0.0000   3.5053
  -6.660   0.0571   0.01520   0.00783  -0.1667  0.3634  0.0170  -3.4588   0.0000   0.0000   0.0000   3.4499
  -6.650   0.0581   0.01520   0.00782  -0.1667  0.3634  0.0170  -3.4538   0.0000   0.0000   0.0000   3.3962
  -6.640   0.0590   0.01520   0.00782  -0.1666  0.3634  0.0170  -3.4488   0.0000   0.0000   0.0000   3.3443
  -6.630   0.0600   0.01519   0.00781  -0.1666  0.3634  0.0170  -3.4437   0.0000   0.0000   0.0000   3.2940
  -6.620   0.0609   0.01519   0.00781  -0.1666  0.3633  0.0170  -3.4387   0.0000   0.0000   0.0000   3.2453
  -6.610   0.0619   0.01519   0.00780  -0.1666  0.3633  0.0170  -3.4337   0.0000   0.0000   0.0000   3.1981
  -6.600   0.0629   0.01518   0.00780  -0.1665  0.3633  0.0170  -3.4287   0.0000   0.0000   0.0000   3.1523
  -6.590   0.0638   0.01518   0.00779  -0.1665  0.3632  0.0170  -3.4236   0.0000   0.0000   0.0000   3.1079
  -6.580   0.0648   0.01517   0.00779  -0.1665  0.3632  0.0170  -3.4186   0.0000   0.0000   0.0000   3.0647
  -6.570   0.0657   0.01517   0.00779  -0.1664  0.3632  0.0170  -3.4136   0.0000   0.0000   0.0000   3.0229
  -6.560   0.0667   0.01517   0.00778  -0.1664  0.3631  0.0170  -3.4086   0.0000   0.0000   0.0000   2.9822
  -6.550   0.0677   0.01516   0.00778  -0.1664  0.3631  0.0170  -3.4036   0.0000   0.0000   0.0000   2.9426
  -6.540   0.0686   0.01516   0.00777  -0.1664  0.3631  0.0170  -3.3986   0.0000   0.0000   0.0000   2.9042
  -6.530   0.0696   0.01516   0.00777  -0.1663  0.3630  0.0171  -3.3936   0.0000   0.0000   0.0000   2.8668
  -6.520   0.0705   0.01515   0.00776  -0.1663  0.3630  0.0171  -3.3886   0.0000   0.0000   0.0000   2.8304
  -6.510   0.0715   0.01515   0.00776  -0.1663  0.3630  0.0171  -3.3836   0.0000   0.0000   0.0000   2.7950
  -6.500   0.0724   0.01514   0.00776  -0.1662  0.3629  0.0171  -3.3786   0.0000   0.0000   0.0000   2.7606
  -6.490   0.0734   0.01514   0.00775  -0.1662  0.3629  0.0171  -3.3736   0.0000   0.0000   0.0000   2.7270
  -6.480   0.0744   0.01514   0.00775  -0.1662  0.3629  0.0171  -3.3686   0.0000   0.0000   0.0000   2.6943
  -6.470   0.0753   0.01513   0.00774  -0.1662  0.3628  0.0171  -3.3636   0.0000   0.0000   0.0000   2.6624
  -6.460   0.0763   0.01513   0.00774  -0.1661  0.3628  0.0171  -3.3586   0.0000   0.0000   0.0000   2.6313
  -6.450   0.0772   0.01513   0.00773  -0.1661  0.3628  0.0171  -3.3536   0.0000   0.0000   0.0000   2.6010
  -6.440   0.0782   0.01512   0.00773  -0.1661  0.3627  0.0171  -3.3486   0.0000   0.0000   0.0000   2.5714
  -6.430   0.0792   0.01512   0.00773  -0.1661  0.3627  0.0171  -3.3436   0.0000   0.0000   0.0000   2.5425
  -6.420   0.0801   0.01512   0.00772  -0.1660  0.3627  0.0171  -3.3386   0.0000   0.0000   0.0000   2.5143
  -6.410   0.0811   0.01511   0.00772  -0.1660  0.3626  0.0171  -3.3337   0.0000   0.0000   0.0000   2.4868
  -6.400   0.0820   0.01511   0.00771  -0.1660  0.3626  0.0171  -3.3287   0.0000   0.0000   0.0000   2.4600
  -6.390   0.0830   0.01511   0.00771  -0.1659  0.3626  0.0171  -3.3237   0.0000   0.0000   0.0000   2.4339
  -6.380   0.0839   0.01510   0.00771  -0.1659  0.3625  0.0171  -3.3188   0.0000   0.0000   0.0000   2.4083
  -6.370   0.0849   0.01510   0.00770  -0.1659  0.3625  0.0171  -3.3138   0.0000   0.0000   0.0000   2.3834
  -6.360   0.0858   0.01510   0.00770  -0.1659  0.3625  0.0171  -3.3089   0.0000   0.0000   0.0000   2.3591
  -6.350   0.0868   0.01509   0.00770  -0.1658  0.3624  0.0171  -3.3039   0.0000   0.0000   0.0000   2.3353
  -6.340   0.0877   0.01509   0.00769  -0.1658  0.3624  0.0171  -3.2990   0.0000   0.0000   0.0000   2.3121
  -6.330   0.0887   0.01509   0.00769  -0.1658  0.3623  0.0171  -3.2941   0.0000   0.0000   0.0000   2.2894
  -6.320   0.0896   0.01508   0.00768  -0.1657  0.3623  0.0171  -3.2892   0.0000   0.0000   0.0000   2.2672
  -6.310   0.0906   0.01508   0.00768  -0.1657  0.3623  0.0171  -3.2842   0.0000   0.0000   0.0000   2.2455
  -6.300   0.0915   0.01508   0.00768  -0.1657  0.3622  0.0171  -3.2793   0.0000   0.0000   0.0000   2.2242
  -6.290   0.0925   0.01508   0.00767  -0.1656  0.3622  0.0171  -3.2744   0.0000   0.0000   0.0000   2.2034
  -6.280   0.0934   0.01507   0.00767  -0.1656  0.3621  0.0171  -3.2695   0.0000   0.0000   0.0000   2.1831
  -6.270   0.0944   0.01507   0.00767  -0.1656  0.3621  0.0171  -3.2646   0.0000   0.0000   0.0000   2.1632
  -6.260   0.0953   0.01507   0.00766  -0.1656  0.3621  0.0171  -3.2597   0.0000   0.0000   0.0000   2.1437
  -6.250   0.0962   0.01506   0.00766  -0.1655  0.3620  0.0171  -3.2548   0.0000   0.0000   0.0000   2.1245
  -6.240   0.0972   0.01506   0.00766  -0.1655  0.3620  0.0172  -3.2500   0.0000   0.0000   0.0000   2.1058
  -6.230   0.0981   0.01506   0.00765  -0.1655  0.3619  0.0172  -3.2451   0.0000   0.0000   0.0000   2.0874
  -6.220   0.0991   0.01506   0.00765  -0.1654  0.3619  0.0172  -3.2402   0.0000   0.0000   0.0000   2.0694
  -6.210   0.1000   0.01505   0.00765  -0.1654  0.3619  0.0172  -3.2353   0.0000   0.0000   0.0000   2.0518
  -6.200   0.1009   0.01505   0.00764  -0.1654  0.3618  0.0172  -3.2305   0.0000   0.0000   0.0000   2.0344
  -6.190   0.1019   0.01505   0.00764  -0.1653  0.3618  0.0172  -3.2256   0.0000   0.0000   0.0000   2.0174
  -6.180   0.1028   0.01505   0.00764  -0.1653  0.3617  0.0172  -3.2207   0.0000   0.0000   0.0000   2.0008
  -6.170   0.1037   0.01504   0.00763  -0.1653  0.3617  0.0172  -3.2159   0.0000   0.0000   0.0000   1.9844
  -6.160   0.1047   0.01504   0.00763  -0.1652  0.3617  0.0172  -3.2110   0.0000   0.0000   0.0000   1.9683
  -6.150   0.1056   0.01504   0.00763  -0.1652  0.3616  0.0172  -3.2062   0.0000   0.0000   0.0000   1.9525
  -6.140   0.1065   0.01503   0.00762  -0.1652  0.3616  0.0172  -3.2013   0.0000   0.0000   0.0000   1.9370
  -6.130   0.1075   0.01503   0.00762  -0.1651  0.3615  0.0172  -3.1965   0.0000   0.0000   0.0000   1.9218
  -6.120   0.1084   0.01503   0.00762  -0.1651  0.3615  0.0172  -3.1916   0.0000   0.0000   0.0000   1.9068
  -6.110   0.1093   0.01503   0.00762  -0.1651  0.3614  0.0172  -3.1868   0.0000   0.0000   0.0000   1.8921
  -6.100   0.1103   0.01503   0.00761  -0.1650  0.3614  0.0172  -3.1820   0.0000   0.0000   0.0000   1.8776
  -6.090   0.1112   0.01502   0.00761  -0.1650  0.3614  0.0172  -3.1771   0.0000   0.0000   0.0000   1.8633
  -6.080   0.1121   0.01502   0.00761  -0.1650  0.3613  0.0172  -3.1723   0.0000   0.0000   0.0000   1.8493
  -6.070   0.1131   0.01502   0.00760  -0.1650  0.3613  0.0172  -3.1675   0.0000   0.0000   0.0000   1.8356
  -6.060   0.1140   0.01502   0.00760  -0.1649  0.3612  0.0172  -3.1626   0.0000   0.0000   0.0000   1.8220
  -6.050   0.1149   0.01501   0.00760  -0.1649  0.3612  0.0172  -3.1578   0.0000   0.0000   0.0000   1.8087
  -6.040   0.1159   0.01501   0.00760  -0.1649  0.3611  0.0172  -3.1530   0.0000   0.0000   0.0000   1.7956
  -6.030   0.1168   0.01501   0.00759  -0.1648  0.3611  0.0172  -3.1482   0.0000   0.0000   0.0000   1.7828
  -6.020   0.1177   0.01501   0.00759  -0.1648  0.3610  0.0172  -3.1434   0.0000   0.0000   0.0000   1.7701
  -6.010   0.1187   0.01500   0.00759  -0.1648  0.3610  0.0172  -3.1386   0.0000   0.0000   0.0000   1.7576
  -6.000   0.1196   0.01500   0.00758  -0.1647  0.3610  0.0172  -3.1338   0.0000   0.0000   0.0000   1.7453
  -5.990   0.1205   0.01500   0.00758  -0.1647  0.3609  0.0172  -3.1289   0.0000   0.0000   0.0000   1.7332
  -5.980   0.1215   0.01500   0.00758  -0.1647  0.3609  0.0172  -3.1241   0.0000   0.0000   0.0000   1.7213
  -5.970   0.1224   0.01500   0.00758  -0.1646  0.3608  0.0172  -3.1193   0.0000   0.0000   0.0000   1.7096
  -5.960   0.1233   0.01499   0.00757  -0.1646  0.3608  0.0173  -3.1145   0.0000   0.0000   0.0000   1.6980
  -5.950   0.1243   0.01499   0.00757  -0.1646  0.3607  0.0173  -3.1097   0.0000   0.0000   0.0000   1.6866
  -5.940   0.1252   0.01499   0.00757  -0.1645  0.3607  0.0173  -3.1049   0.0000   0.0000   0.0000   1.6754
  -5.930   0.1262   0.01499   0.00756  -0.1645  0.3606  0.0173  -3.1001   0.0000   0.0000   0.0000   1.6643
  -5.920   0.1271   0.01498   0.00756  -0.1645  0.3606  0.0173  -3.0953   0.0000   0.0000   0.0000   1.6534
  -5.910   0.1280   0.01498   0.00756  -0.1644  0.3605  0.0173  -3.0906   0.0000   0.0000   0.0000   1.6427
  -5.900   0.1290   0.01498   0.00756  -0.1644  0.3605  0.0173  -3.0858   0.0000   0.0000   0.0000   1.6321
  -5.890   0.1299   0.01498   0.00755  -0.1644  0.3604  0.0173  -3.0810   0.0000   0.0000   0.0000   1.6216
  -5.880   0.1308   0.01498   0.00755  -0.1643  0.3604  0.0173  -3.0762   0.0000   0.0000   0.0000   1.6113
  -5.870   0.1318   0.01497   0.00755  -0.1643  0.3604  0.0173  -3.0714   0.0000   0.0000   0.0000   1.6012
  -5.860   0.1327   0.01497   0.00755  -0.1643  0.3603  0.0173  -3.0666   0.0000   0.0000   0.0000   1.5911
  -5.850   0.1337   0.01497   0.00754  -0.1643  0.3603  0.0173  -3.0618   0.0000   0.0000   0.0000   1.5813
  -5.840   0.1346   0.01497   0.00754  -0.1642  0.3602  0.0173  -3.0571   0.0000   0.0000   0.0000   1.5715
  -5.830   0.1355   0.01497   0.00754  -0.1642  0.3602  0.0173  -3.0523   0.0000   0.0000   0.0000   1.5619
  -5.820   0.1365   0.01497   0.00754  -0.1642  0.3601  0.0173  -3.0475   0.0000   0.0000   0.0000   1.5524
  -5.810   0.1374   0.01496   0.00753  -0.1641  0.3601  0.0173  -3.0427   0.0000   0.0000   0.0000   1.5431
  -5.800   0.1384   0.01496   0.00753  -0.1641  0.3600  0.0173  -3.0380   0.0000   0.0000   0.0000   1.5338
  -5.790   0.1393   0.01496   0.00753  -0.1641  0.3600  0.0173  -3.0332   0.0000   0.0000   0.0000   1.5247
  -5.780   0.1402   0.01496   0.00753  -0.1640  0.3599  0.0173  -3.0284   0.0000   0.0000   0.0000   1.5158
  -5.770   0.1412   0.01496   0.00752  -0.1640  0.3599  0.0173  -3.0237   0.0000   0.0000   0.0000   1.5069
  -5.760   0.1421   0.01495   0.00752  -0.1640  0.3598  0.0173  -3.0189   0.0000   0.0000   0.0000   1.4981
  -5.750   0.1431   0.01495   0.00752  -0.1639  0.3598  0.0173  -3.0141   0.0000   0.0000   0.0000   1.4895
  -5.740   0.1440   0.01495   0.00752  -0.1639  0.3597  0.0173  -3.0094   0.0000   0.0000   0.0000   1.4809
  -5.730   0.1449   0.01495   0.00751  -0.1639  0.3597  0.0173  -3.0046   0.0000   0.0000   0.0000   1.4725
  -5.720   0.1459   0.01495   0.00751  -0.1639  0.3597  0.0173  -2.9999   0.0000   0.0000   0.0000   1.4642
  -5.710   0.1468   0.01495   0.00751  -0.1638  0.3596  0.0173  -2.9951   0.0000   0.0000   0.0000   1.4560
  -5.700   0.1478   0.01494   0.00751  -0.1638  0.3596  0.0173  -2.9904   0.0000   0.0000   0.0000   1.4479
  -5.690   0.1487   0.01494   0.00751  -0.1638  0.3595  0.0173  -2.9856   0.0000   0.0000   0.0000   1.4399
  -5.680   0.1497   0.01494   0.00750  -0.1637  0.3595  0.0174  -2.9809   0.0000   0.0000   0.0000   1.4320
  -5.670   0.1506   0.01494   0.00750  -0.1637  0.3594  0.0174  -2.9761   0.0000   0.0000   0.0000   1.4242
  -5.660   0.1516   0.01494   0.00750  -0.1637  0.3594  0.0174  -2.9714   0.0000   0.0000   0.0000   1.4164
  -5.650   0.1525   0.01493   0.00750  -0.1636  0.3593  0.0174  -2.9666   0.0000   0.0000   0.0000   1.4088
  -5.640   0.1534   0.01493   0.00749  -0.1636  0.3593  0.0174  -2.9619   0.0000   0.0000   0.0000   1.4013
  -5.630   0.1544   0.01493   0.00749  -0.1636  0.3592  0.0174  -2.9572   0.0000   0.0000   0.0000   1.3939
  -5.620   0.1553   0.01493   0.00749  -0.1635  0.3592  0.0174  -2.9524   0.0000   0.0000   0.0000   1.3865
  -5.610   0.1563   0.01493   0.00749  -0.1635  0.3592  0.0174  -2.9477   0.0000   0.0000   0.0000   1.3792
  -5.600   0.1572   0.01493   0.00749  -0.1635  0.3591  0.0174  -2.9430   0.0000   0.0000   0.0000   1.3721
  -5.590   0.1582   0.01493   0.00748  -0.1635  0.3591  0.0174  -2.9382   0.0000   0.0000   0.0000   1.3650
  -5.580   0.1591   0.01492   0.00748  -0.1634  0.3590  0.0174  -2.9335   0.0000   0.0000   0.0000   1.3580
  -5.570   0.1601   0.01492   0.00748  -0.1634  0.3590  0.0174  -2.9288   0.0000   0.0000   0.0000   1.3510
  -5.560   0.1610   0.01492   0.00748  -0.1634  0.3589  0.0174  -2.9241   0.0000   0.0000   0.0000   1.3442
  -5.550   0.1620   0.01492   0.00747  -0.1633  0.3589  0.0174  -2.9193   0.0000   0.0000   0.0000   1.3374
  -5.540   0.1629   0.01492   0.00747  -0.1633  0.3588  0.0174  -2.9146   0.0000   0.0000   0.0000   1.3307
  -5.530   0.1638   0.01492   0.00747  -0.1633  0.3588  0.0174  -2.9099   0.0000   0.0000   0.0000   1.3241
  -5.520   0.1648   0.01491   0.00747  -0.1632  0.3588  0.0174  -2.9052   0.0000   0.0000   0.0000   1.3176
  -5.510   0.1657   0.01491   0.00747  -0.1632  0.3587  0.0174  -2.9005   0.0000   0.0000   0.0000   1.3111
  -5.500   0.1667   0.01491   0.00746  -0.1632  0.3587  0.0174  -2.8958   0.0000   0.0000   0.0000   1.3047
  -5.490   0.1676   0.01491   0.00746  -0.1632  0.3586  0.0174  -2.8911   0.0000   0.0000   0.0000   1.2984
  -5.480   0.1686   0.01491   0.00746  -0.1631  0.3586  0.0174  -2.8864   0.0000   0.0000   0.0000   1.2922
  -5.470   0.1695   0.01491   0.00746  -0.1631  0.3586  0.0174  -2.8817   0.0000   0.0000   0.0000   1.2860
  -5.460   0.1705   0.01491   0.00746  -0.1631  0.3585  0.0174  -2.8770   0.0000   0.0000   0.0000   1.2799
  -5.450   0.1714   0.01491   0.00745  -0.1630  0.3585  0.0174  -2.8723   0.0000   0.0000   0.0000   1.2738
  -5.440   0.1724   0.01490   0.00745  -0.1630  0.3584  0.0174  -2.8676   0.0000   0.0000   0.0000   1.2678
  -5.430   0.1733   0.01490   0.00745  -0.1630  0.3584  0.0174  -2.8629   0.0000   0.0000   0.0000   1.2619
  -5.420   0.1743   0.01490   0.00745  -0.1629  0.3584  0.0174  -2.8582   0.0000   0.0000   0.0000   1.2561
  -5.410   0.1752   0.01490   0.00745  -0.1629  0.3583  0.0174  -2.8535   0.0000   0.0000   0.0000   1.2503
  -5.400   0.1762   0.01490   0.00745  -0.1629  0.3583  0.0175  -2.8488   0.0000   0.0000   0.0000   1.2446
  -5.390   0.1771   0.01490   0.00744  -0.1629  0.3582  0.0175  -2.8442   0.0000   0.0000   0.0000   1.2389
  -5.380   0.1781   0.01490   0.00744  -0.1628  0.3582  0.0175  -2.8395   0.0000   0.0000   0.0000   1.2333
  -5.370   0.1790   0.01489   0.00744  -0.1628  0.3582  0.0175  -2.8348   0.0000   0.0000   0.0000   1.2277
  -5.360   0.1800   0.01489   0.00744  -0.1628  0.3581  0.0175  -2.8301   0.0000   0.0000   0.0000   1.2223
  -5.350   0.1809   0.01489   0.00744  -0.1627  0.3581  0.0175  -2.8255   0.0000   0.0000   0.0000   1.2169
  -5.340   0.1819   0.01489   0.00743  -0.1627  0.3580  0.0175  -2.8208   0.0000   0.0000   0.0000   1.2115
  -5.330   0.1828   0.01489   0.00743  -0.1627  0.3580  0.0175  -2.8162   0.0000   0.0000   0.0000   1.2062
  -5.320   0.1837   0.01489   0.00743  -0.1626  0.3580  0.0175  -2.8115   0.0000   0.0000   0.0000   1.2010
  -5.310   0.1847   0.01489   0.00743  -0.1626  0.3579  0.0175  -2.8069   0.0000   0.0000   0.0000   1.1958
  -5.300   0.1856   0.01489   0.00743  -0.1626  0.3579  0.0175  -2.8023   0.0000   0.0000   0.0000   1.1907
  -5.290   0.1865   0.01489   0.00743  -0.1626  0.3579  0.0175  -2.7977   0.0000   0.0000   0.0000   1.1857
  -5.280   0.1875   0.01488   0.00743  -0.1625  0.3578  0.0175  -2.7930   0.0000   0.0000   0.0000   1.1807
  -5.270   0.1884   0.01488   0.00742  -0.1625  0.3578  0.0175  -2.7884   0.0000   0.0000   0.0000   1.1758
  -5.260   0.1893   0.01488   0.00742  -0.1625  0.3578  0.0175  -2.7838   0.0000   0.0000   0.0000   1.1709
  -5.250   0.1903   0.01488   0.00742  -0.1624  0.3577  0.0175  -2.7792   0.0000   0.0000   0.0000   1.1661
  -5.240   0.1912   0.01488   0.00742  -0.1624  0.3577  0.0175  -2.7746   0.0000   0.0000   0.0000   1.1613
  -5.230   0.1921   0.01488   0.00742  -0.1624  0.3577  0.0175  -2.7701   0.0000   0.0000   0.0000   1.1566
  -5.220   0.1930   0.01488   0.00742  -0.1623  0.3576  0.0175  -2.7655   0.0000   0.0000   0.0000   1.1519
  -5.210   0.1940   0.01488   0.00742  -0.1623  0.3576  0.0175  -2.7609   0.0000   0.0000   0.0000   1.1473
  -5.200   0.1949   0.01488   0.00742  -0.1623  0.3576  0.0175  -2.7563   0.0000   0.0000   0.0000   1.1427
  -5.190   0.1958   0.01488   0.00741  -0.1622  0.3575  0.0175  -2.7517   0.0000   0.0000   0.0000   1.1381
  -5.180   0.1967   0.01488   0.00741  -0.1622  0.3575  0.0175  -2.7472   0.0000   0.0000   0.0000   1.1337
  -5.170   0.1977   0.01488   0.00741  -0.1622  0.3575  0.0175  -2.7426   0.0000   0.0000   0.0000   1.1292
  -5.160   0.1986   0.01488   0.00741  -0.1621  0.3575  0.0175  -2.7382   0.0000   0.0000   0.0000   1.1248
  -5.150   0.1995   0.01488   0.00741  -0.1621  0.3574  0.0175  -2.7338   0.0000   0.0000   0.0000   1.1204
  -5.140   0.2004   0.01487   0.00741  -0.1621  0.3574  0.0175  -2.7294   0.0000   0.0000   0.0000   1.1161
  -5.130   0.2014   0.01487   0.00741  -0.1620  0.3574  0.0176  -2.7251   0.0000   0.0000   0.0000   1.1118
  -5.120   0.2023   0.01487   0.00741  -0.1620  0.3573  0.0176  -2.7207   0.0000   0.0000   0.0000   1.1075
  -5.110   0.2032   0.01487   0.00741  -0.1620  0.3573  0.0176  -2.7163   0.0000   0.0000   0.0000   1.1033
  -5.100   0.2041   0.01487   0.00741  -0.1619  0.3573  0.0176  -2.7119   0.0000   0.0000   0.0000   1.0992
  -5.090   0.2051   0.01487   0.00740  -0.1619  0.3573  0.0176  -2.7076   0.0000   0.0000   0.0000   1.0950
  -5.080   0.2060   0.01487   0.00740  -0.1619  0.3572  0.0176  -2.7032   0.0000   0.0000   0.0000   1.0909
  -5.070   0.2069   0.01487   0.00740  -0.1618  0.3572  0.0176  -2.6988   0.0000   0.0000   0.0000   1.0868
  -5.060   0.2078   0.01487   0.00740  -0.1618  0.3572  0.0176  -2.6945   0.0000   0.0000   0.0000   1.0828
  -5.050   0.2088   0.01487   0.00740  -0.1618  0.3572  0.0176  -2.6901   0.0000   0.0000   0.0000   1.0788
  -5.040   0.2097   0.01487   0.00740  -0.1617  0.3572  0.0176  -2.6857   0.0000   0.0000   0.0000   1.0748
  -5.030   0.2106   0.01487   0.00740  -0.1617  0.3571  0.0176  -2.6814   0.0000   0.0000   0.0000   1.0709
  -5.020   0.2115   0.01487   0.00740  -0.1617  0.3571  0.0176  -2.6770   0.0000   0.0000   0.0000   1.0670
  -5.010   0.2125   0.01487   0.00740  -0.1616  0.3571  0.0176  -2.6727   0.0000   0.0000   0.0000   1.0631
  -5.000   0.2134   0.01487   0.00740  -0.1616  0.3571  0.0176  -2.6683   0.0000   0.0000   0.0000   1.0593
  -4.990   0.2143   0.01487   0.00740  -0.1616  0.3571  0.0176  -2.6639   0.0000   0.0000   0.0000   1.0555
  -4.980   0.2153   0.01487   0.00739  -0.1615  0.3570  0.0176  -2.6596   0.0000   0.0000   0.0000   1.0517
  -4.970   0.2162   0.01487   0.00739  -0.1615  0.3570  0.0176  -2.6552   0.0000   0.0000   0.0000   1.0480
  -4.960   0.2171   0.01486   0.00739  -0.1615  0.3570  0.0176  -2.6509   0.0000   0.0000   0.0000   1.0443
  -4.950   0.2181   0.01486   0.00739  -0.1614  0.3570  0.0176  -2.6465   0.0000   0.0000   0.0000   1.0406
  -4.940   0.2190   0.01486   0.00739  -0.1614  0.3570  0.0176  -2.6422   0.0000   0.0000   0.0000   1.0369
  -4.930   0.2199   0.01486   0.00739  -0.1614  0.3570  0.0176  -2.6378   0.0000   0.0000   0.0000   1.0333
  -4.920   0.2209   0.01486   0.00739  -0.1613  0.3569  0.0176  -2.6335   0.0000   0.0000   0.0000   1.0297
  -4.910   0.2218   0.01486   0.00739  -0.1613  0.3569  0.0176  -2.6291   0.0000   0.0000   0.0000   1.0262
  -4.900   0.2227   0.01486   0.00739  -0.1613  0.3569  0.0176  -2.6248   0.0000   0.0000   0.0000   1.0226
  -4.890   0.2237   0.01486   0.00739  -0.1612  0.3569  0.0176  -2.6205   0.0000   0.0000   0.0000   1.0191
  -4.880   0.2246   0.01486   0.00739  -0.1612  0.3569  0.0176  -2.6161   0.0000   0.0000   0.0000   1.0156
  -4.870   0.2255   0.01486   0.00739  -0.1612  0.3569  0.0176  -2.6118   0.0000   0.0000   0.0000   1.0122
  -4.860   0.2265   0.01486   0.00739  -0.1611  0.3568  0.0177  -2.6074   0.0000   0.0000   0.0000   1.0088
  -4.850   0.2274   0.01486   0.00738  -0.1611  0.3568  0.0177  -2.6031   0.0000   0.0000   0.0000   1.0054
  -4.840   0.2283   0.01486   0.00738  -0.1611  0.3568  0.0177  -2.5988   0.0000   0.0000   0.0000   1.0020
  -4.830   0.2293   0.01486   0.00738  -0.1610  0.3568  0.0177  -2.5944   0.0000   0.0000   0.0000   0.9987
  -4.820   0.2302   0.01486   0.00738  -0.1610  0.3568  0.0177  -2.5901   0.0000   0.0000   0.0000   0.9953
  -4.810   0.2312   0.01486   0.00738  -0.1610  0.3568  0.0177  -2.5858   0.0000   0.0000   0.0000   0.9920
  -4.800   0.2321   0.01486   0.00738  -0.1610  0.3568  0.0177  -2.5815   0.0000   0.0000   0.0000   0.9888
  -4.790   0.2330   0.01486   0.00738  -0.1609  0.3567  0.0177  -2.5771   0.0000   0.0000   0.0000   0.9855
  -4.780   0.2340   0.01486   0.00738  -0.1609  0.3567  0.0177  -2.5728   0.0000   0.0000   0.0000   0.9823
  -4.770   0.2349   0.01486   0.00738  -0.1609  0.3567  0.0177  -2.5685   0.0000   0.0000   0.0000   0.9791
  -4.760   0.2358   0.01486   0.00738  -0.1608  0.3567  0.0177  -2.5642   0.0000   0.0000   0.0000   0.9760
  -4.750   0.2368   0.01486   0.00738  -0.1608  0.3567  0.0177  -2.5598   0.0000   0.0000   0.0000   0.9728
  -4.740   0.2377   0.01486   0.00738  -0.1608  0.3567  0.0177  -2.5555   0.0000   0.0000   0.0000   0.9697
  -4.730   0.2387   0.01486   0.00738  -0.1607  0.3566  0.0177  -2.5512   0.0000   0.0000   0.0000   0.9666
  -4.720   0.2396   0.01486   0.00738  -0.1607  0.3566  0.0177  -2.5469   0.0000   0.0000   0.0000   0.9636
  -4.710   0.2406   0.01486   0.00738  -0.1607  0.3566  0.0177  -2.5426   0.0000   0.0000   0.0000   0.9605
  -4.700   0.2415   0.01486   0.00738  -0.1606  0.3566  0.0177  -2.5383   0.0000   0.0000   0.0000   0.9575
  -4.690   0.2424   0.01486   0.00737  -0.1606  0.3566  0.0177  -2.5340   0.0000   0.0000   0.0000   0.9545
  -4.680   0.2434   0.01486   0.00737  -0.1606  0.3566  0.0177  -2.5297   0.0000   0.0000   0.0000   0.9515
  -4.670   0.2443   0.01485   0.00737  -0.1606  0.3565  0.0177  -2.5254   0.0000   0.0000   0.0000   0.9485
  -4.660   0.2453   0.01485   0.00737  -0.1605  0.3565  0.0177  -2.5211   0.0000   0.0000   0.0000   0.9456
  -4.650   0.2462   0.01485   0.00737  -0.1605  0.3565  0.0177  -2.5168   0.0000   0.0000   0.0000   0.9427
[...]
  -1.840   0.5030   0.01549   0.00800  -0.1512  0.3530  0.0204  -1.9307   0.0000   0.0000   0.0000   0.5529
  -1.830   0.5038   0.01550   0.00801  -0.1511  0.3530  0.0204  -1.9316   0.0000   0.0000   0.0000   0.5522
  -1.820   0.5047   0.01550   0.00801  -0.1511  0.3530  0.0204  -1.9326   0.0000   0.0000   0.0000   0.5516
  -1.810   0.5056   0.01551   0.00802  -0.1511  0.3530  0.0204  -1.9335   0.0000   0.0000   0.0000   0.5509
  -1.800   0.5065   0.01551   0.00802  -0.1510  0.3530  0.0204  -1.9344   0.0000   0.0000   0.0000   0.5503
  -1.790   0.5073   0.01552   0.00803  -0.1510  0.3530  0.0204  -1.9353   0.0000   0.0000   0.0000   0.5496
  -1.780   0.5082   0.01552   0.00803  -0.1510  0.3530  0.0204  -1.9363   0.0000   0.0000   0.0000   0.5490
  -1.770   0.5091   0.01553   0.00804  -0.1509  0.3530  0.0204  -1.9372   0.0000   0.0000   0.0000   0.5483
  -1.760   0.5100   0.01553   0.00804  -0.1509  0.3529  0.0204  -1.9381   0.0000   0.0000   0.0000   0.5477
  -1.750   0.5108   0.01554   0.00805  -0.1509  0.3529  0.0204  -1.9391   0.0000   0.0000   0.0000   0.5470
  -1.740   0.5117   0.01554   0.00805  -0.1508  0.3529  0.0204  -1.9400   0.0000   0.0000   0.0000   0.5464
  -1.730   0.5126   0.01555   0.00806  -0.1508  0.3529  0.0205  -1.9410   0.0000   0.0000   0.0000   0.5457
  -1.720   0.5135   0.01555   0.00806  -0.1507  0.3529  0.0205  -1.9419   0.0000   0.0000   0.0000   0.5451
  -1.710   0.5144   0.01556   0.00807  -0.1507  0.3529  0.0205  -1.9428   0.0000   0.0000   0.0000   0.5444
  -1.700   0.5153   0.01556   0.00808  -0.1507  0.3529  0.0205  -1.9438   0.0000   0.0000   0.0000   0.5438
  -1.690   0.5161   0.01557   0.00808  -0.1506  0.3529  0.0205  -1.9447   0.0000   0.0000   0.0000   0.5432
  -1.680   0.5170   0.01557   0.00809  -0.1506  0.3529  0.0205  -1.9456   0.0000   0.0000   0.0000   0.5425
  -1.670   0.5179   0.01558   0.00809  -0.1506  0.3528  0.0205  -1.9466   0.0000   0.0000   0.0000   0.5419
  -1.660   0.5188   0.01558   0.00810  -0.1505  0.3528  0.0205  -1.9475   0.0000   0.0000   0.0000   0.5413
  -1.650   0.5197   0.01559   0.00810  -0.1505  0.3528  0.0205  -1.9485   0.0000   0.0000   0.0000   0.5406
  -1.640   0.5206   0.01559   0.00811  -0.1505  0.3528  0.0205  -1.9494   0.0000   0.0000   0.0000   0.5400
  -1.630   0.5215   0.01560   0.00811  -0.1504  0.3528  0.0205  -1.9503   0.0000   0.0000   0.0000   0.5394
  -1.620   0.5223   0.01560   0.00812  -0.1504  0.3528  0.0205  -1.9513   0.0000   0.0000   0.0000   0.5388
  -1.610   0.5232   0.01561   0.00812  -0.1504  0.3528  0.0205  -1.9522   0.0000   0.0000   0.0000   0.5381
  -1.600   0.5241   0.01561   0.00813  -0.1503  0.3528  0.0205  -1.9532   0.0000   0.0000   0.0000   0.5375
  -1.590   0.5250   0.01562   0.00813  -0.1503  0.3527  0.0205  -1.9541   0.0000   0.0000   0.0000   0.5369
  -1.580   0.5259   0.01562   0.00814  -0.1503  0.3527  0.0206  -1.9551   0.0000   0.0000   0.0000   0.5363
  -1.570   0.5268   0.01563   0.00814  -0.1502  0.3527  0.0206  -1.9560   0.0000   0.0000   0.0000   0.5357
  -1.560   0.5277   0.01563   0.00815  -0.1502  0.3527  0.0206  -1.9569   0.0000   0.0000   0.0000   0.5351
  -1.550   0.5286   0.01564   0.00815  -0.1502  0.3527  0.0206  -1.9579   0.0000   0.0000   0.0000   0.5345
  -1.540   0.5295   0.01564   0.00816  -0.1501  0.3527  0.0206  -1.9588   0.0000   0.0000   0.0000   0.5339
  -1.530   0.5304   0.01565   0.00817  -0.1501  0.3527  0.0206  -1.9598   0.0000   0.0000   0.0000   0.5333
  -1.520   0.5312   0.01565   0.00817  -0.1501  0.3527  0.0206  -1.9607   0.0000   0.0000   0.0000   0.5327
  -1.510   0.5321   0.01566   0.00818  -0.1500  0.3526  0.0206  -1.9617   0.0000   0.0000   0.0000   0.5321
  -1.500   0.5330   0.01566   0.00818  -0.1500  0.3526  0.0206  -1.9626   0.0000   0.0000   0.0000   0.5315
  -1.490   0.5339   0.01567   0.00819  -0.1500  0.3526  0.0206  -1.9636   0.0000   0.0000   0.0000   0.5309
  -1.480   0.5348   0.01568   0.00819  -0.1499  0.3526  0.0206  -1.9645   0.0000   0.0000   0.0000   0.5303
  -1.470   0.5357   0.01568   0.00820  -0.1499  0.3526  0.0206  -1.9654   0.0000   0.0000   0.0000   0.5297
  -1.460   0.5366   0.01569   0.00820  -0.1499  0.3526  0.0206  -1.9664   0.0000   0.0000   0.0000   0.5291
  -1.450   0.5375   0.01569   0.00821  -0.1498  0.3526  0.0206  -1.9673   0.0000   0.0000   0.0000   0.5285
  -1.440   0.5384   0.01570   0.00821  -0.1498  0.3526  0.0206  -1.9683   0.0000   0.0000   0.0000   0.5279
  -1.430   0.5393   0.01570   0.00822  -0.1498  0.3525  0.0207  -1.9692   0.0000   0.0000   0.0000   0.5273
  -1.420   0.5402   0.01571   0.00822  -0.1497  0.3525  0.0207  -1.9702   0.0000   0.0000   0.0000   0.5267
  -1.410   0.5411   0.01571   0.00823  -0.1497  0.3525  0.0207  -1.9711   0.0000   0.0000   0.0000   0.5262
  -1.400   0.5420   0.01572   0.00824  -0.1497  0.3525  0.0207  -1.9721   0.0000   0.0000   0.0000   0.5256
  -1.390   0.5429   0.01572   0.00824  -0.1496  0.3525  0.0207  -1.9730   0.0000   0.0000   0.0000   0.5250
  -1.380   0.5438   0.01573   0.00825  -0.1496  0.3525  0.0207  -1.9740   0.0000   0.0000   0.0000   0.5244
  -1.370   0.5447   0.01573   0.00825  -0.1496  0.3525  0.0207  -1.9749   0.0000   0.0000   0.0000   0.5239
  -1.360   0.5455   0.01574   0.00826  -0.1495  0.3525  0.0207  -1.9758   0.0000   0.0000   0.0000   0.5233
  -1.350   0.5464   0.01574   0.00826  -0.1495  0.3524  0.0207  -1.9768   0.0000   0.0000   0.0000   0.5227
  -1.340   0.5473   0.01575   0.00827  -0.1495  0.3524  0.0207  -1.9777   0.0000   0.0000   0.0000   0.5222
  -1.330   0.5482   0.01575   0.00827  -0.1494  0.3524  0.0207  -1.9787   0.0000   0.0000   0.0000   0.5216
  -1.320   0.5491   0.01576   0.00828  -0.1494  0.3524  0.0207  -1.9796   0.0000   0.0000   0.0000   0.5210
  -1.310   0.5500   0.01577   0.00829  -0.1494  0.3524  0.0207  -1.9806   0.0000   0.0000   0.0000   0.5205
  -1.300   0.5509   0.01577   0.00829  -0.1493  0.3524  0.0207  -1.9815   0.0000   0.0000   0.0000   0.5199
  -1.290   0.5518   0.01578   0.00830  -0.1493  0.3524  0.0208  -1.9825   0.0000   0.0000   0.0000   0.5193
  -1.280   0.5527   0.01578   0.00830  -0.1493  0.3524  0.0208  -1.9834   0.0000   0.0000   0.0000   0.5188
  -1.270   0.5536   0.01579   0.00831  -0.1492  0.3523  0.0208  -1.9844   0.0000   0.0000   0.0000   0.5182
  -1.260   0.5545   0.01579   0.00831  -0.1492  0.3523  0.0208  -1.9853   0.0000   0.0000   0.0000   0.5177
  -1.250   0.5554   0.01580   0.00832  -0.1492  0.3523  0.0208  -1.9862   0.0000   0.0000   0.0000   0.5171
  -1.240   0.5563   0.01580   0.00832  -0.1491  0.3523  0.0208  -1.9872   0.0000   0.0000   0.0000   0.5166
  -1.230   0.5572   0.01581   0.00833  -0.1491  0.3523  0.0208  -1.9881   0.0000   0.0000   0.0000   0.5160
  -1.220   0.5581   0.01581   0.00834  -0.1491  0.3523  0.0208  -1.9891   0.0000   0.0000   0.0000   0.5155
  -1.210   0.5590   0.01582   0.00834  -0.1490  0.3523  0.0208  -1.9900   0.0000   0.0000   0.0000   0.5149
  -1.200   0.5599   0.01583   0.00835  -0.1490  0.3523  0.0208  -1.9910   0.0000   0.0000   0.0000   0.5144
  -1.190   0.5607   0.01583   0.00835  -0.1490  0.3522  0.0208  -1.9919   0.0000   0.0000   0.0000   0.5139
  -1.180   0.5616   0.01584   0.00836  -0.1489  0.3522  0.0208  -1.9929   0.0000   0.0000   0.0000   0.5133
  -1.170   0.5625   0.01584   0.00836  -0.1489  0.3522  0.0209  -1.9938   0.0000   0.0000   0.0000   0.5128
  -1.160   0.5634   0.01585   0.00837  -0.1489  0.3522  0.0209  -1.9947   0.0000   0.0000   0.0000   0.5123
  -1.150   0.5643   0.01585   0.00838  -0.1488  0.3522  0.0209  -1.9957   0.0000   0.0000   0.0000   0.5117
  -1.140   0.5652   0.01586   0.00838  -0.1488  0.3522  0.0209  -1.9966   0.0000   0.0000   0.0000   0.5112
  -1.130   0.5661   0.01586   0.00839  -0.1488  0.3522  0.0209  -1.9975   0.0000   0.0000   0.0000   0.5107
  -1.120   0.5669   0.01587   0.00839  -0.1487  0.3522  0.0209  -1.9985   0.0000   0.0000   0.0000   0.5101
  -1.110   0.5678   0.01588   0.00840  -0.1487  0.3521  0.0209  -1.9994   0.0000   0.0000   0.0000   0.5096
  -1.100   0.5687   0.01588   0.00841  -0.1487  0.3521  0.0209  -2.0003   0.0000   0.0000   0.0000   0.5091
  -1.090   0.5696   0.01589   0.00841  -0.1486  0.3521  0.0209  -2.0012   0.0000   0.0000   0.0000   0.5086
  -1.080   0.5704   0.01590   0.00842  -0.1486  0.3521  0.0209  -2.0022   0.0000   0.0000   0.0000   0.5081
  -1.070   0.5713   0.01590   0.00843  -0.1486  0.3521  0.0209  -2.0031   0.0000   0.0000   0.0000   0.5076
  -1.060   0.5721   0.01591   0.00843  -0.1485  0.3521  0.0210  -2.0040   0.0000   0.0000   0.0000   0.5070
  -1.050   0.5730   0.01592   0.00844  -0.1485  0.3521  0.0210  -2.0049   0.0000   0.0000   0.0000   0.5065
  -1.040   0.5738   0.01592   0.00845  -0.1484  0.3521  0.0210  -2.0058   0.0000   0.0000   0.0000   0.5060
  -1.030   0.5747   0.01593   0.00846  -0.1484  0.3520  0.0210  -2.0067   0.0000   0.0000   0.0000   0.5055
  -1.020   0.5755   0.01594   0.00846  -0.1484  0.3520  0.0210  -2.0076   0.0000   0.0000   0.0000   0.5050
  -1.010   0.5764   0.01594   0.00847  -0.1483  0.3520  0.0210  -2.0085   0.0000   0.0000   0.0000   0.5045
  -1.000   0.5772   0.01595   0.00848  -0.1483  0.3520  0.0210  -2.0094   0.0000   0.0000   0.0000   0.5040
  -0.990   0.5781   0.01596   0.00848  -0.1483  0.3520  0.0210  -2.0103   0.0000   0.0000   0.0000   0.5035
  -0.980   0.5789   0.01596   0.00849  -0.1482  0.3520  0.0210  -2.0112   0.0000   0.0000   0.0000   0.5030
  -0.970   0.5798   0.01597   0.00850  -0.1482  0.3520  0.0210  -2.0121   0.0000   0.0000   0.0000   0.5025
  -0.960   0.5806   0.01598   0.00851  -0.1481  0.3519  0.0211  -2.0130   0.0000   0.0000   0.0000   0.5020
  -0.950   0.5814   0.01599   0.00851  -0.1481  0.3519  0.0211  -2.0139   0.0000   0.0000   0.0000   0.5015
  -0.940   0.5823   0.01599   0.00852  -0.1481  0.3519  0.0211  -2.0148   0.0000   0.0000   0.0000   0.5011
  -0.930   0.5831   0.01600   0.00853  -0.1480  0.3519  0.0211  -2.0157   0.0000   0.0000   0.0000   0.5006
  -0.920   0.5840   0.01601   0.00854  -0.1480  0.3519  0.0211  -2.0166   0.0000   0.0000   0.0000   0.5001
  -0.910   0.5848   0.01601   0.00854  -0.1479  0.3519  0.0211  -2.0175   0.0000   0.0000   0.0000   0.4996
  -0.900   0.5856   0.01602   0.00855  -0.1479  0.3519  0.0211  -2.0184   0.0000   0.0000   0.0000   0.4991
  -0.890   0.5865   0.01603   0.00856  -0.1479  0.3519  0.0211  -2.0193   0.0000   0.0000   0.0000   0.4986
  -0.880   0.5873   0.01604   0.00857  -0.1478  0.3518  0.0211  -2.0202   0.0000   0.0000   0.0000   0.4981
  -0.870   0.5882   0.01604   0.00857  -0.1478  0.3518  0.0211  -2.0211   0.0000   0.0000   0.0000   0.4977
  -0.860   0.5890   0.01605   0.00858  -0.1477  0.3518  0.0212  -2.0220   0.0000   0.0000   0.0000   0.4972
  -0.850   0.5898   0.01606   0.00859  -0.1477  0.3518  0.0212  -2.0229   0.0000   0.0000   0.0000   0.4967
  -0.840   0.5907   0.01607   0.00860  -0.1477  0.3518  0.0212  -2.0237   0.0000   0.0000   0.0000   0.4962
  -0.830   0.5915   0.01607   0.00861  -0.1476  0.3518  0.0212  -2.0246   0.0000   0.0000   0.0000   0.4958
  -0.820   0.5924   0.01608   0.00861  -0.1476  0.3518  0.0212  -2.0255   0.0000   0.0000   0.0000   0.4953
  -0.810   0.5932   0.01609   0.00862  -0.1475  0.3518  0.0212  -2.0264   0.0000   0.0000   0.0000   0.4948
  -0.800   0.5940   0.01610   0.00863  -0.1475  0.3517  0.0212  -2.0273   0.0000   0.0000   0.0000   0.4943
  -0.790   0.5949   0.01610   0.00864  -0.1475  0.3517  0.0212  -2.0282   0.0000   0.0000   0.0000   0.4939
  -0.780   0.5957   0.01611   0.00864  -0.1474  0.3517  0.0213  -2.0291   0.0000   0.0000   0.0000   0.4934
  -0.770   0.5966   0.01612   0.00865  -0.1474  0.3517  0.0213  -2.0300   0.0000   0.0000   0.0000   0.4929
  -0.760   0.5974   0.01612   0.00866  -0.1473  0.3517  0.0213  -2.0309   0.0000   0.0000   0.0000   0.4925
  -0.750   0.5983   0.01613   0.00867  -0.1473  0.3517  0.0213  -2.0318   0.0000   0.0000   0.0000   0.4920
  -0.740   0.5991   0.01614   0.00867  -0.1473  0.3517  0.0213  -2.0327   0.0000   0.0000   0.0000   0.4915
  -0.730   0.6000   0.01615   0.00868  -0.1472  0.3516  0.0214  -2.0336   0.0000   0.0000   0.0000   0.4911
  -0.720   0.6008   0.01615   0.00869  -0.1472  0.3516  0.0214  -2.0345   0.0000   0.0000   0.0000   0.4906
  -0.710   0.6017   0.01616   0.00870  -0.1472  0.3516  0.0214  -2.0354   0.0000   0.0000   0.0000   0.4902
  -0.700   0.6025   0.01617   0.00870  -0.1471  0.3516  0.0214  -2.0364   0.0000   0.0000   0.0000   0.4897
  -0.690   0.6034   0.01617   0.00871  -0.1471  0.3516  0.0214  -2.0373   0.0000   0.0000   0.0000   0.4892
  -0.680   0.6042   0.01618   0.00872  -0.1470  0.3516  0.0215  -2.0382   0.0000   0.0000   0.0000   0.4888
  -0.670   0.6051   0.01619   0.00873  -0.1470  0.3516  0.0215  -2.0391   0.0000   0.0000   0.0000   0.4883
  -0.660   0.6059   0.01620   0.00873  -0.1470  0.3516  0.0215  -2.0400   0.0000   0.0000   0.0000   0.4879
  -0.650   0.6068   0.01620   0.00874  -0.1469  0.3515  0.0215  -2.0409   0.0000   0.0000   0.0000   0.4874
  -0.640   0.6077   0.01621   0.00875  -0.1469  0.3515  0.0216  -2.0418   0.0000   0.0000   0.0000   0.4870
  -0.630   0.6085   0.01622   0.00876  -0.1469  0.3515  0.0216  -2.0427   0.0000   0.0000   0.0000   0.4865
  -0.620   0.6094   0.01622   0.00876  -0.1468  0.3515  0.0216  -2.0436   0.0000   0.0000   0.0000   0.4861
  -0.610   0.6102   0.01623   0.00877  -0.1468  0.3515  0.0216  -2.0445   0.0000   0.0000   0.0000   0.4856
  -0.600   0.6111   0.01624   0.00878  -0.1468  0.3515  0.0217  -2.0454   0.0000   0.0000   0.0000   0.4852
  -0.590   0.6120   0.01625   0.00879  -0.1467  0.3515  0.0217  -2.0463   0.0000   0.0000   0.0000   0.4847
  -0.580   0.6128   0.01625   0.00879  -0.1467  0.3514  0.0217  -2.0473   0.0000   0.0000   0.0000   0.4843
  -0.570   0.6137   0.01626   0.00880  -0.1466  0.3514  0.0217  -2.0482   0.0000   0.0000   0.0000   0.4838
  -0.560   0.6145   0.01627   0.00881  -0.1466  0.3514  0.0218  -2.0491   0.0000   0.0000   0.0000   0.4834
  -0.550   0.6154   0.01627   0.00882  -0.1466  0.3514  0.0218  -2.0500   0.0000   0.0000   0.0000   0.4830
  -0.540   0.6163   0.01628   0.00882  -0.1465  0.3514  0.0218  -2.0509   0.0000   0.0000   0.0000   0.4825
  -0.530   0.6171   0.01629   0.00883  -0.1465  0.3514  0.0218  -2.0518   0.0000   0.0000   0.0000   0.4821
  -0.520   0.6180   0.01630   0.00884  -0.1465  0.3514  0.0219  -2.0527   0.0000   0.0000   0.0000   0.4816
  -0.510   0.6189   0.01630   0.00885  -0.1464  0.3513  0.0219  -2.0536   0.0000   0.0000   0.0000   0.4812
  -0.500   0.6197   0.01631   0.00885  -0.1464  0.3513  0.0219  -2.0546   0.0000   0.0000   0.0000   0.4808
  -0.490   0.6206   0.01632   0.00886  -0.1464  0.3513  0.0220  -2.0555   0.0000   0.0000   0.0000   0.4803
  -0.480   0.6214   0.01632   0.00887  -0.1463  0.3513  0.0220  -2.0564   0.0000   0.0000   0.0000   0.4799
  -0.470   0.6223   0.01633   0.00888  -0.1463  0.3513  0.0220  -2.0573   0.0000   0.0000   0.0000   0.4795
  -0.460   0.6232   0.01634   0.00888  -0.1463  0.3512  0.0221  -2.0582   0.0000   0.0000   0.0000   0.4790
  -0.450   0.6240   0.01635   0.00889  -0.1462  0.3512  0.0221  -2.0591   0.0000   0.0000   0.0000   0.4786
  -0.440   0.6249   0.01635   0.00890  -0.1462  0.3512  0.0221  -2.0601   0.0000   0.0000   0.0000   0.4782
  -0.430   0.6258   0.01636   0.00891  -0.1462  0.3512  0.0221  -2.0610   0.0000   0.0000   0.0000   0.4778
  -0.420   0.6266   0.01637   0.00891  -0.1461  0.3512  0.0222  -2.0619   0.0000   0.0000   0.0000   0.4773
  -0.410   0.6275   0.01638   0.00892  -0.1461  0.3512  0.0222  -2.0628   0.0000   0.0000   0.0000   0.4769
  -0.400   0.6284   0.01638   0.00893  -0.1460  0.3511  0.0222  -2.0637   0.0000   0.0000   0.0000   0.4765
  -0.390   0.6292   0.01639   0.00894  -0.1460  0.3511  0.0223  -2.0646   0.0000   0.0000   0.0000   0.4761
  -0.380   0.6301   0.01640   0.00894  -0.1460  0.3511  0.0223  -2.0655   0.0000   0.0000   0.0000   0.4756
  -0.370   0.6309   0.01641   0.00895  -0.1459  0.3511  0.0223  -2.0665   0.0000   0.0000   0.0000   0.4752
  -0.360   0.6318   0.01641   0.00896  -0.1459  0.3510  0.0224  -2.0674   0.0000   0.0000   0.0000   0.4748
  -0.350   0.6327   0.01642   0.00897  -0.1459  0.3510  0.0224  -2.0683   0.0000   0.0000   0.0000   0.4744
  -0.340   0.6335   0.01643   0.00897  -0.1458  0.3510  0.0224  -2.0692   0.0000   0.0000   0.0000   0.4740
  -0.330   0.6344   0.01643   0.00898  -0.1458  0.3510  0.0224  -2.0701   0.0000   0.0000   0.0000   0.4735
  -0.320   0.6353   0.01644   0.00899  -0.1458  0.3510  0.0225  -2.0710   0.0000   0.0000   0.0000   0.4731
  -0.310   0.6361   0.01645   0.00900  -0.1457  0.3509  0.0225  -2.0719   0.0000   0.0000   0.0000   0.4727
  -0.300   0.6370   0.01646   0.00901  -0.1457  0.3509  0.0225  -2.0729   0.0000   0.0000   0.0000   0.4723
  -0.290   0.6379   0.01646   0.00901  -0.1457  0.3509  0.0226  -2.0738   0.0000   0.0000   0.0000   0.4719
  -0.280   0.6387   0.01647   0.00902  -0.1456  0.3509  0.0226  -2.0747   0.0000   0.0000   0.0000   0.4715
  -0.270   0.6396   0.01648   0.00903  -0.1456  0.3508  0.0226  -2.0756   0.0000   0.0000   0.0000   0.4711
  -0.260   0.6405   0.01649   0.00904  -0.1456  0.3508  0.0227  -2.0765   0.0000   0.0000   0.0000   0.4707
  -0.250   0.6413   0.01649   0.00904  -0.1455  0.3508  0.0227  -2.0774   0.0000   0.0000   0.0000   0.4703
  -0.240   0.6422   0.01650   0.00905  -0.1455  0.3508  0.0227  -2.0783   0.0000   0.0000   0.0000   0.4699
  -0.230   0.6431   0.01651   0.00906  -0.1455  0.3508  0.0228  -2.0793   0.0000   0.0000   0.0000   0.4695
  -0.220   0.6439   0.01652   0.00907  -0.1454  0.3507  0.0228  -2.0802   0.0000   0.0000   0.0000   0.4691
  -0.210   0.6448   0.01653   0.00908  -0.1454  0.3507  0.0228  -2.0811   0.0000   0.0000   0.0000   0.4687
  -0.200   0.6456   0.01653   0.00908  -0.1454  0.3507  0.0228  -2.0820   0.0000   0.0000   0.0000   0.4683
  -0.190   0.6465   0.01654   0.00909  -0.1453  0.3507  0.0229  -2.0829   0.0000   0.0000   0.0000   0.4679
  -0.180   0.6474   0.01655   0.00910  -0.1453  0.3506  0.0229  -2.0838   0.0000   0.0000   0.0000   0.4675
  -0.170   0.6482   0.01656   0.00911  -0.1453  0.3506  0.0229  -2.0847   0.0000   0.0000   0.0000   0.4671
  -0.160   0.6491   0.01656   0.00912  -0.1452  0.3506  0.0230  -2.0857   0.0000   0.0000   0.0000   0.4667
  -0.150   0.6500   0.01657   0.00912  -0.1452  0.3505  0.0230  -2.0866   0.0000   0.0000   0.0000   0.4663
  -0.140   0.6508   0.01658   0.00913  -0.1451  0.3505  0.0230  -2.0875   0.0000   0.0000   0.0000   0.4659
  -0.130   0.6517   0.01659   0.00914  -0.1451  0.3505  0.0230  -2.0884   0.0000   0.0000   0.0000   0.4655
  -0.120   0.6525   0.01660   0.00915  -0.1451  0.3505  0.0231  -2.0893   0.0000   0.0000   0.0000   0.4651
  -0.110   0.6534   0.01660   0.00916  -0.1450  0.3504  0.0231  -2.0902   0.0000   0.0000   0.0000   0.4647
  -0.100   0.6542   0.01661   0.00917  -0.1450  0.3504  0.0231  -2.0911   0.0000   0.0000   0.0000   0.4643
  -0.090   0.6551   0.01662   0.00918  -0.1450  0.3504  0.0231  -2.0920   0.0000   0.0000   0.0000   0.4639
  -0.080   0.6559   0.01663   0.00918  -0.1449  0.3504  0.0232  -2.0929   0.0000   0.0000   0.0000   0.4635
  -0.070   0.6567   0.01664   0.00919  -0.1449  0.3503  0.0232  -2.0938   0.0000   0.0000   0.0000   0.4632
  -0.060   0.6576   0.01665   0.00920  -0.1449  0.3503  0.0232  -2.0946   0.0000   0.0000   0.0000   0.4628
  -0.050   0.6584   0.01666   0.00921  -0.1448  0.3503  0.0232  -2.0955   0.0000   0.0000   0.0000   0.4624
  -0.040   0.6592   0.01667   0.00922  -0.1448  0.3502  0.0233  -2.0964   0.0000   0.0000   0.0000   0.4620
  -0.030   0.6600   0.01668   0.00923  -0.1447  0.3502  0.0233  -2.0973   0.0000   0.0000   0.0000   0.4616
  -0.020   0.6608   0.01669   0.00924  -0.1447  0.3502  0.0233  -2.0981   0.0000   0.0000   0.0000   0.4613
  -0.010   0.6617   0.01669   0.00925  -0.1447  0.3502  0.0233  -2.0990   0.0000   0.0000   0.0000   0.4609
   0.000   0.6625   0.01670   0.00926  -0.1446  0.3501  0.0234  -2.0999   0.0000   0.0000   0.0000   0.4605


