xflr5 v6.61

 Calculated polar for: Airfoil-RevE-HC

 1 1 Reynolds number fixed          Mach number fixed         

 xtrf =   1.000 (top)        1.000 (bottom)
 Mach =   0.180     Re =     1.500 e 6     Ncrit =   0.500

  alpha     CL        CD       CDp       Cm    Top Xtr Bot Xtr   Cpmin    Chinge    XCp    
 ------- -------- --------- --------- -------- ------- ------- -------- --------- ---------
   0.000   0.6625   0.01670   0.00926  -0.1446  0.3501  0.0234  -2.0999   0.0000   0.0000   0.0000   0.4605
   0.010   0.6633   0.01671   0.00927  -0.1446  0.3501  0.0234  -2.1007   0.0000   0.0000   0.0000   0.4601
   0.020   0.6641   0.01672   0.00928  -0.1445  0.3501  0.0234  -2.1016   0.0000   0.0000   0.0000   0.4598
   0.030   0.6649   0.01673   0.00929  -0.1445  0.3500  0.0234  -2.1024   0.0000   0.0000   0.0000   0.4594
   0.040   0.6657   0.01674   0.00930  -0.1444  0.3500  0.0234  -2.1033   0.0000   0.0000   0.0000   0.4590
   0.050   0.6665   0.01675   0.00931  -0.1444  0.3500  0.0235  -2.1042   0.0000   0.0000   0.0000   0.4587
   0.060   0.6673   0.01676   0.00932  -0.1444  0.3499  0.0235  -2.1050   0.0000   0.0000   0.0000   0.4583
   0.070   0.6681   0.01677   0.00933  -0.1443  0.3499  0.0235  -2.1059   0.0000   0.0000   0.0000   0.4579
   0.080   0.6689   0.01678   0.00934  -0.1443  0.3499  0.0235  -2.1067   0.0000   0.0000   0.0000   0.4576
   0.090   0.6697   0.01679   0.00935  -0.1442  0.3499  0.0235  -2.1076   0.0000   0.0000   0.0000   0.4572
   0.100   0.6705   0.01680   0.00936  -0.1442  0.3498  0.0236  -2.1084   0.0000   0.0000   0.0000   0.4568
   0.110   0.6713   0.01681   0.00937  -0.1441  0.3498  0.0236  -2.1093   0.0000   0.0000   0.0000   0.4565
   0.120   0.6721   0.01682   0.00938  -0.1441  0.3498  0.0236  -2.1101   0.0000   0.0000   0.0000   0.4561
   0.130   0.6729   0.01684   0.00940  -0.1441  0.3497  0.0236  -2.1110   0.0000   0.0000   0.0000   0.4557
   0.140   0.6737   0.01685   0.00941  -0.1440  0.3497  0.0236  -2.1118   0.0000   0.0000   0.0000   0.4554
   0.150   0.6745   0.01686   0.00942  -0.1440  0.3497  0.0236  -2.1127   0.0000   0.0000   0.0000   0.4550
   0.160   0.6752   0.01687   0.00943  -0.1439  0.3496  0.0237  -2.1135   0.0000   0.0000   0.0000   0.4547
   0.170   0.6760   0.01688   0.00944  -0.1439  0.3496  0.0237  -2.1144   0.0000   0.0000   0.0000   0.4543
   0.180   0.6768   0.01689   0.00945  -0.1438  0.3496  0.0237  -2.1152   0.0000   0.0000   0.0000   0.4540
   0.190   0.6776   0.01690   0.00946  -0.1438  0.3495  0.0237  -2.1161   0.0000   0.0000   0.0000   0.4536
   0.200   0.6784   0.01691   0.00947  -0.1438  0.3495  0.0237  -2.1169   0.0000   0.0000   0.0000   0.4532
   0.210   0.6792   0.01692   0.00948  -0.1437  0.3495  0.0237  -2.1178   0.0000   0.0000   0.0000   0.4529
   0.220   0.6800   0.01693   0.00949  -0.1437  0.3494  0.0238  -2.1187   0.0000   0.0000   0.0000   0.4525
   0.230   0.6808   0.01694   0.00950  -0.1436  0.3494  0.0238  -2.1195   0.0000   0.0000   0.0000   0.4522
   0.240   0.6816   0.01695   0.00951  -0.1436  0.3494  0.0238  -2.1204   0.0000   0.0000   0.0000   0.4518
   0.250   0.6824   0.01696   0.00952  -0.1436  0.3493  0.0238  -2.1212   0.0000   0.0000   0.0000   0.4515
   0.260   0.6833   0.01697   0.00953  -0.1435  0.3493  0.0238  -2.1221   0.0000   0.0000   0.0000   0.4511
   0.270   0.6841   0.01698   0.00954  -0.1435  0.3493  0.0238  -2.1229   0.0000   0.0000   0.0000   0.4508
   0.280   0.6849   0.01699   0.00955  -0.1434  0.3492  0.0238  -2.1238   0.0000   0.0000   0.0000   0.4504
   0.290   0.6857   0.01700   0.00956  -0.1434  0.3492  0.0239  -2.1247   0.0000   0.0000   0.0000   0.4501
   0.300   0.6865   0.01701   0.00957  -0.1433  0.3492  0.0239  -2.1255   0.0000   0.0000   0.0000   0.4497
   0.310   0.6873   0.01702   0.00958  -0.1433  0.3491  0.0239  -2.1264   0.0000   0.0000   0.0000   0.4494
   0.320   0.6881   0.01703   0.00960  -0.1433  0.3491  0.0239  -2.1273   0.0000   0.0000   0.0000   0.4490
   0.330   0.6889   0.01704   0.00961  -0.1432  0.3491  0.0239  -2.1281   0.0000   0.0000   0.0000   0.4487
   0.340   0.6897   0.01705   0.00962  -0.1432  0.3490  0.0239  -2.1290   0.0000   0.0000   0.0000   0.4484
   0.350   0.6906   0.01706   0.00963  -0.1431  0.3490  0.0239  -2.1299   0.0000   0.0000   0.0000   0.4480
   0.360   0.6914   0.01707   0.00964  -0.1431  0.3489  0.0239  -2.1307   0.0000   0.0000   0.0000   0.4477
   0.370   0.6922   0.01708   0.00965  -0.1431  0.3489  0.0240  -2.1316   0.0000   0.0000   0.0000   0.4473
   0.380   0.6930   0.01709   0.00966  -0.1430  0.3489  0.0240  -2.1325   0.0000   0.0000   0.0000   0.4470
   0.390   0.6938   0.01710   0.00967  -0.1430  0.3488  0.0240  -2.1333   0.0000   0.0000   0.0000   0.4466
   0.400   0.6946   0.01711   0.00968  -0.1430  0.3488  0.0240  -2.1342   0.0000   0.0000   0.0000   0.4463
   0.410   0.6955   0.01712   0.00969  -0.1429  0.3488  0.0240  -2.1351   0.0000   0.0000   0.0000   0.4460
   0.420   0.6963   0.01713   0.00970  -0.1429  0.3487  0.0240  -2.1359   0.0000   0.0000   0.0000   0.4456
   0.430   0.6971   0.01714   0.00971  -0.1428  0.3487  0.0240  -2.1368   0.0000   0.0000   0.0000   0.4453
   0.440   0.6979   0.01715   0.00972  -0.1428  0.3487  0.0241  -2.1377   0.0000   0.0000   0.0000   0.4450
   0.450   0.6987   0.01716   0.00973  -0.1428  0.3486  0.0241  -2.1386   0.0000   0.0000   0.0000   0.4446
   0.460   0.6996   0.01717   0.00974  -0.1427  0.3486  0.0241  -2.1394   0.0000   0.0000   0.0000   0.4443
   0.470   0.7004   0.01718   0.00975  -0.1427  0.3486  0.0241  -2.1403   0.0000   0.0000   0.0000   0.4440
   0.480   0.7012   0.01719   0.00976  -0.1426  0.3485  0.0241  -2.1412   0.0000   0.0000   0.0000   0.4436
   0.490   0.7020   0.01720   0.00977  -0.1426  0.3485  0.0241  -2.1421   0.0000   0.0000   0.0000   0.4433
   0.500   0.7029   0.01721   0.00978  -0.1426  0.3485  0.0242  -2.1429   0.0000   0.0000   0.0000   0.4430
   0.510   0.7037   0.01722   0.00979  -0.1425  0.3484  0.0242  -2.1438   0.0000   0.0000   0.0000   0.4426
   0.520   0.7045   0.01723   0.00980  -0.1425  0.3484  0.0242  -2.1447   0.0000   0.0000   0.0000   0.4423
   0.530   0.7053   0.01724   0.00981  -0.1425  0.3483  0.0242  -2.1456   0.0000   0.0000   0.0000   0.4420
   0.540   0.7061   0.01725   0.00982  -0.1424  0.3483  0.0242  -2.1464   0.0000   0.0000   0.0000   0.4416
   0.550   0.7070   0.01726   0.00983  -0.1424  0.3483  0.0242  -2.1473   0.0000   0.0000   0.0000   0.4413
   0.560   0.7078   0.01727   0.00984  -0.1423  0.3482  0.0242  -2.1482   0.0000   0.0000   0.0000   0.4410
   0.570   0.7086   0.01728   0.00985  -0.1423  0.3482  0.0243  -2.1491   0.0000   0.0000   0.0000   0.4406
   0.580   0.7094   0.01729   0.00986  -0.1423  0.3482  0.0243  -2.1499   0.0000   0.0000   0.0000   0.4403
   0.590   0.7103   0.01730   0.00987  -0.1422  0.3481  0.0243  -2.1508   0.0000   0.0000   0.0000   0.4400
   0.600   0.7111   0.01731   0.00988  -0.1422  0.3481  0.0243  -2.1517   0.0000   0.0000   0.0000   0.4397
   0.610   0.7119   0.01732   0.00989  -0.1422  0.3481  0.0243  -2.1526   0.0000   0.0000   0.0000   0.4393
   0.620   0.7127   0.01733   0.00990  -0.1421  0.3480  0.0243  -2.1534   0.0000   0.0000   0.0000   0.4390
   0.630   0.7136   0.01734   0.00992  -0.1421  0.3480  0.0244  -2.1543   0.0000   0.0000   0.0000   0.4387
   0.640   0.7144   0.01735   0.00993  -0.1420  0.3480  0.0244  -2.1552   0.0000   0.0000   0.0000   0.4384
   0.650   0.7152   0.01736   0.00994  -0.1420  0.3479  0.0244  -2.1561   0.0000   0.0000   0.0000   0.4381
   0.660   0.7161   0.01737   0.00995  -0.1420  0.3479  0.0244  -2.1569   0.0000   0.0000   0.0000   0.4377
   0.670   0.7169   0.01738   0.00996  -0.1419  0.3479  0.0244  -2.1578   0.0000   0.0000   0.0000   0.4374
   0.680   0.7177   0.01739   0.00997  -0.1419  0.3478  0.0244  -2.1587   0.0000   0.0000   0.0000   0.4371
   0.690   0.7185   0.01740   0.00998  -0.1419  0.3478  0.0245  -2.1596   0.0000   0.0000   0.0000   0.4368
   0.700   0.7194   0.01741   0.00999  -0.1418  0.3478  0.0245  -2.1604   0.0000   0.0000   0.0000   0.4365
   0.710   0.7202   0.01743   0.01000  -0.1418  0.3477  0.0245  -2.1613   0.0000   0.0000   0.0000   0.4362
   0.720   0.7210   0.01744   0.01001  -0.1417  0.3477  0.0245  -2.1622   0.0000   0.0000   0.0000   0.4358
   0.730   0.7218   0.01745   0.01002  -0.1417  0.3477  0.0245  -2.1631   0.0000   0.0000   0.0000   0.4355
   0.740   0.7227   0.01746   0.01003  -0.1417  0.3476  0.0245  -2.1639   0.0000   0.0000   0.0000   0.4352
   0.750   0.7235   0.01747   0.01004  -0.1416  0.3476  0.0246  -2.1648   0.0000   0.0000   0.0000   0.4349
   0.760   0.7243   0.01748   0.01005  -0.1416  0.3476  0.0246  -2.1657   0.0000   0.0000   0.0000   0.4346
   0.770   0.7251   0.01749   0.01006  -0.1416  0.3475  0.0246  -2.1665   0.0000   0.0000   0.0000   0.4343
   0.780   0.7260   0.01750   0.01007  -0.1415  0.3475  0.0246  -2.1674   0.0000   0.0000   0.0000   0.4340
   0.790   0.7268   0.01751   0.01008  -0.1415  0.3475  0.0246  -2.1683   0.0000   0.0000   0.0000   0.4336
   0.800   0.7276   0.01752   0.01009  -0.1415  0.3474  0.0246  -2.1692   0.0000   0.0000   0.0000   0.4333
   0.810   0.7284   0.01753   0.01011  -0.1414  0.3474  0.0247  -2.1700   0.0000   0.0000   0.0000   0.4330
   0.820   0.7293   0.01754   0.01012  -0.1414  0.3474  0.0247  -2.1709   0.0000   0.0000   0.0000   0.4327
   0.830   0.7301   0.01755   0.01013  -0.1413  0.3473  0.0247  -2.1718   0.0000   0.0000   0.0000   0.4324
   0.840   0.7309   0.01756   0.01014  -0.1413  0.3473  0.0247  -2.1726   0.0000   0.0000   0.0000   0.4321
   0.850   0.7317   0.01757   0.01015  -0.1413  0.3473  0.0247  -2.1735   0.0000   0.0000   0.0000   0.4318
   0.860   0.7325   0.01758   0.01016  -0.1412  0.3472  0.0247  -2.1744   0.0000   0.0000   0.0000   0.4315
   0.870   0.7333   0.01759   0.01017  -0.1412  0.3472  0.0248  -2.1752   0.0000   0.0000   0.0000   0.4312
   0.880   0.7341   0.01761   0.01018  -0.1411  0.3472  0.0248  -2.1760   0.0000   0.0000   0.0000   0.4309
   0.890   0.7349   0.01762   0.01020  -0.1411  0.3471  0.0248  -2.1769   0.0000   0.0000   0.0000   0.4306
   0.900   0.7357   0.01763   0.01021  -0.1411  0.3471  0.0248  -2.1777   0.0000   0.0000   0.0000   0.4303
   0.910   0.7365   0.01764   0.01022  -0.1410  0.3471  0.0249  -2.1786   0.0000   0.0000   0.0000   0.4300
   0.920   0.7372   0.01765   0.01023  -0.1410  0.3470  0.0249  -2.1794   0.0000   0.0000   0.0000   0.4297
   0.930   0.7380   0.01767   0.01025  -0.1409  0.3470  0.0249  -2.1802   0.0000   0.0000   0.0000   0.4294
   0.940   0.7388   0.01768   0.01026  -0.1409  0.3470  0.0249  -2.1810   0.0000   0.0000   0.0000   0.4291
   0.950   0.7396   0.01769   0.01027  -0.1409  0.3470  0.0250  -2.1819   0.0000   0.0000   0.0000   0.4288
   0.960   0.7403   0.01770   0.01029  -0.1408  0.3469  0.0250  -2.1827   0.0000   0.0000   0.0000   0.4285
   0.970   0.7411   0.01772   0.01030  -0.1408  0.3469  0.0250  -2.1835   0.0000   0.0000   0.0000   0.4282
   0.980   0.7419   0.01773   0.01031  -0.1407  0.3469  0.0250  -2.1843   0.0000   0.0000   0.0000   0.4279
   0.990   0.7426   0.01774   0.01032  -0.1407  0.3468  0.0251  -2.1851   0.0000   0.0000   0.0000   0.4276
   1.000   0.7434   0.01776   0.01034  -0.1406  0.3468  0.0251  -2.1859   0.0000   0.0000   0.0000   0.4273
   1.010   0.7442   0.01777   0.01035  -0.1406  0.3468  0.0251  -2.1867   0.0000   0.0000   0.0000   0.4271
   1.020   0.7449   0.01778   0.01036  -0.1405  0.3468  0.0252  -2.1875   0.0000   0.0000   0.0000   0.4268
   1.030   0.7457   0.01779   0.01038  -0.1405  0.3467  0.0252  -2.1884   0.0000   0.0000   0.0000   0.4265
   1.040   0.7465   0.01781   0.01039  -0.1405  0.3467  0.0253  -2.1892   0.0000   0.0000   0.0000   0.4262
   1.050   0.7472   0.01782   0.01040  -0.1404  0.3467  0.0253  -2.1900   0.0000   0.0000   0.0000   0.4259
   1.060   0.7480   0.01783   0.01042  -0.1404  0.3467  0.0253  -2.1908   0.0000   0.0000   0.0000   0.4256
   1.070   0.7487   0.01785   0.01043  -0.1403  0.3466  0.0254  -2.1916   0.0000   0.0000   0.0000   0.4253
   1.080   0.7495   0.01786   0.01045  -0.1403  0.3466  0.0254  -2.1924   0.0000   0.0000   0.0000   0.4250
   1.090   0.7503   0.01787   0.01046  -0.1402  0.3466  0.0255  -2.1932   0.0000   0.0000   0.0000   0.4247
   1.100   0.7510   0.01789   0.01047  -0.1402  0.3466  0.0255  -2.1940   0.0000   0.0000   0.0000   0.4245
   1.110   0.7518   0.01790   0.01049  -0.1401  0.3465  0.0255  -2.1948   0.0000   0.0000   0.0000   0.4242
   1.120   0.7526   0.01791   0.01050  -0.1401  0.3465  0.0256  -2.1957   0.0000   0.0000   0.0000   0.4239
   1.130   0.7533   0.01792   0.01051  -0.1401  0.3465  0.0256  -2.1965   0.0000   0.0000   0.0000   0.4236
   1.140   0.7541   0.01794   0.01052  -0.1400  0.3465  0.0257  -2.1973   0.0000   0.0000   0.0000   0.4233
   1.150   0.7549   0.01795   0.01054  -0.1400  0.3464  0.0257  -2.1981   0.0000   0.0000   0.0000   0.4230
   1.160   0.7557   0.01796   0.01055  -0.1399  0.3464  0.0258  -2.1989   0.0000   0.0000   0.0000   0.4228
   1.170   0.7565   0.01797   0.01056  -0.1399  0.3464  0.0258  -2.1997   0.0000   0.0000   0.0000   0.4225
   1.180   0.7572   0.01799   0.01058  -0.1399  0.3464  0.0259  -2.2006   0.0000   0.0000   0.0000   0.4222
   1.190   0.7580   0.01800   0.01059  -0.1398  0.3464  0.0259  -2.2014   0.0000   0.0000   0.0000   0.4219
   1.200   0.7588   0.01801   0.01060  -0.1398  0.3463  0.0260  -2.2022   0.0000   0.0000   0.0000   0.4216
   1.210   0.7596   0.01802   0.01062  -0.1397  0.3463  0.0260  -2.2031   0.0000   0.0000   0.0000   0.4213
   1.220   0.7604   0.01804   0.01063  -0.1397  0.3463  0.0261  -2.2039   0.0000   0.0000   0.0000   0.4211
   1.230   0.7612   0.01805   0.01064  -0.1397  0.3463  0.0261  -2.2047   0.0000   0.0000   0.0000   0.4208
   1.240   0.7620   0.01806   0.01065  -0.1396  0.3463  0.0262  -2.2055   0.0000   0.0000   0.0000   0.4205
   1.250   0.7628   0.01807   0.01067  -0.1396  0.3462  0.0262  -2.2064   0.0000   0.0000   0.0000   0.4202
   1.260   0.7636   0.01809   0.01068  -0.1395  0.3462  0.0263  -2.2072   0.0000   0.0000   0.0000   0.4200
   1.270   0.7644   0.01810   0.01069  -0.1395  0.3462  0.0263  -2.2081   0.0000   0.0000   0.0000   0.4197
   1.280   0.7652   0.01811   0.01070  -0.1395  0.3462  0.0264  -2.2089   0.0000   0.0000   0.0000   0.4194
   1.290   0.7660   0.01812   0.01072  -0.1394  0.3462  0.0265  -2.2097   0.0000   0.0000   0.0000   0.4191
   1.300   0.7668   0.01813   0.01073  -0.1394  0.3462  0.0265  -2.2106   0.0000   0.0000   0.0000   0.4188
   1.310   0.7676   0.01815   0.01074  -0.1393  0.3461  0.0266  -2.2114   0.0000   0.0000   0.0000   0.4186
   1.320   0.7684   0.01816   0.01075  -0.1393  0.3461  0.0266  -2.2123   0.0000   0.0000   0.0000   0.4183
   1.330   0.7692   0.01817   0.01077  -0.1393  0.3461  0.0267  -2.2131   0.0000   0.0000   0.0000   0.4180
   1.340   0.7700   0.01818   0.01078  -0.1392  0.3461  0.0268  -2.2140   0.0000   0.0000   0.0000   0.4177
   1.350   0.7708   0.01819   0.01079  -0.1392  0.3461  0.0268  -2.2148   0.0000   0.0000   0.0000   0.4175
   1.360   0.7716   0.01820   0.01080  -0.1392  0.3461  0.0269  -2.2156   0.0000   0.0000   0.0000   0.4172
   1.370   0.7724   0.01822   0.01081  -0.1391  0.3461  0.0269  -2.2165   0.0000   0.0000   0.0000   0.4169
   1.380   0.7732   0.01823   0.01083  -0.1391  0.3460  0.0270  -2.2173   0.0000   0.0000   0.0000   0.4167
   1.390   0.7740   0.01824   0.01084  -0.1390  0.3460  0.0271  -2.2182   0.0000   0.0000   0.0000   0.4164
   1.400   0.7749   0.01825   0.01085  -0.1390  0.3460  0.0271  -2.2190   0.0000   0.0000   0.0000   0.4161
   1.410   0.7757   0.01826   0.01086  -0.1390  0.3460  0.0272  -2.2199   0.0000   0.0000   0.0000   0.4158
   1.420   0.7765   0.01827   0.01088  -0.1389  0.3460  0.0273  -2.2207   0.0000   0.0000   0.0000   0.4156
   1.430   0.7773   0.01829   0.01089  -0.1389  0.3460  0.0273  -2.2216   0.0000   0.0000   0.0000   0.4153
   1.440   0.7781   0.01830   0.01090  -0.1389  0.3460  0.0274  -2.2224   0.0000   0.0000   0.0000   0.4150
   1.450   0.7789   0.01831   0.01091  -0.1388  0.3460  0.0275  -2.2233   0.0000   0.0000   0.0000   0.4148
   1.460   0.7797   0.01832   0.01092  -0.1388  0.3459  0.0276  -2.2241   0.0000   0.0000   0.0000   0.4145
   1.470   0.7806   0.01833   0.01094  -0.1388  0.3459  0.0277  -2.2250   0.0000   0.0000   0.0000   0.4142
   1.480   0.7814   0.01834   0.01095  -0.1387  0.3459  0.0278  -2.2258   0.0000   0.0000   0.0000   0.4140
   1.490   0.7822   0.01835   0.01096  -0.1387  0.3459  0.0279  -2.2267   0.0000   0.0000   0.0000   0.4137
   1.500   0.7830   0.01837   0.01097  -0.1387  0.3459  0.0280  -2.2275   0.0000   0.0000   0.0000   0.4134
   1.510   0.7838   0.01838   0.01098  -0.1386  0.3459  0.0281  -2.2284   0.0000   0.0000   0.0000   0.4132
   1.520   0.7846   0.01839   0.01100  -0.1386  0.3459  0.0282  -2.2292   0.0000   0.0000   0.0000   0.4129
   1.530   0.7855   0.01840   0.01101  -0.1385  0.3458  0.0283  -2.2301   0.0000   0.0000   0.0000   0.4126
   1.540   0.7863   0.01841   0.01102  -0.1385  0.3458  0.0283  -2.2309   0.0000   0.0000   0.0000   0.4124
   1.550   0.7871   0.01842   0.01103  -0.1385  0.3458  0.0284  -2.2318   0.0000   0.0000   0.0000   0.4121
   1.560   0.7879   0.01844   0.01105  -0.1384  0.3458  0.0285  -2.2326   0.0000   0.0000   0.0000   0.4119
   1.570   0.7887   0.01845   0.01106  -0.1384  0.3458  0.0286  -2.2335   0.0000   0.0000   0.0000   0.4116
   1.580   0.7896   0.01846   0.01107  -0.1384  0.3458  0.0287  -2.2343   0.0000   0.0000   0.0000   0.4113
   1.590   0.7904   0.01847   0.01108  -0.1383  0.3458  0.0287  -2.2352   0.0000   0.0000   0.0000   0.4111
   1.600   0.7912   0.01848   0.01109  -0.1383  0.3458  0.0288  -2.2360   0.0000   0.0000   0.0000   0.4108
   1.610   0.7920   0.01849   0.01111  -0.1383  0.3457  0.0289  -2.2369   0.0000   0.0000   0.0000   0.4106
   1.620   0.7928   0.01851   0.01112  -0.1382  0.3457  0.0290  -2.2378   0.0000   0.0000   0.0000   0.4103
   1.630   0.7937   0.01852   0.01113  -0.1382  0.3457  0.0291  -2.2386   0.0000   0.0000   0.0000   0.4100
   1.640   0.7945   0.01853   0.01114  -0.1382  0.3457  0.0291  -2.2395   0.0000   0.0000   0.0000   0.4098
   1.650   0.7953   0.01854   0.01116  -0.1381  0.3457  0.0292  -2.2403   0.0000   0.0000   0.0000   0.4095
   1.660   0.7961   0.01855   0.01117  -0.1381  0.3457  0.0293  -2.2412   0.0000   0.0000   0.0000   0.4093
   1.670   0.7969   0.01856   0.01118  -0.1381  0.3457  0.0294  -2.2420   0.0000   0.0000   0.0000   0.4090
   1.680   0.7978   0.01858   0.01119  -0.1380  0.3456  0.0294  -2.2429   0.0000   0.0000   0.0000   0.4088
   1.690   0.7986   0.01859   0.01121  -0.1380  0.3456  0.0295  -2.2437   0.0000   0.0000   0.0000   0.4085
   1.700   0.7994   0.01860   0.01122  -0.1380  0.3456  0.0296  -2.2446   0.0000   0.0000   0.0000   0.4083
   1.710   0.8002   0.01861   0.01123  -0.1379  0.3456  0.0297  -2.2454   0.0000   0.0000   0.0000   0.4080
   1.720   0.8010   0.01862   0.01124  -0.1379  0.3456  0.0297  -2.2463   0.0000   0.0000   0.0000   0.4077
   1.730   0.8019   0.01864   0.01126  -0.1378  0.3456  0.0298  -2.2471   0.0000   0.0000   0.0000   0.4075
   1.740   0.8027   0.01865   0.01127  -0.1378  0.3456  0.0299  -2.2480   0.0000   0.0000   0.0000   0.4072
   1.750   0.8035   0.01866   0.01128  -0.1378  0.3456  0.0299  -2.2488   0.0000   0.0000   0.0000   0.4070
   1.760   0.8043   0.01867   0.01129  -0.1377  0.3455  0.0300  -2.2497   0.0000   0.0000   0.0000   0.4067
   1.770   0.8051   0.01868   0.01131  -0.1377  0.3455  0.0302  -2.2505   0.0000   0.0000   0.0000   0.4065
   1.780   0.8059   0.01870   0.01132  -0.1377  0.3455  0.0304  -2.2513   0.0000   0.0000   0.0000   0.4062
   1.790   0.8067   0.01871   0.01133  -0.1376  0.3455  0.0306  -2.2521   0.0000   0.0000   0.0000   0.4060
   1.800   0.8075   0.01872   0.01134  -0.1376  0.3455  0.0308  -2.2530   0.0000   0.0000   0.0000   0.4057
   1.810   0.8083   0.01873   0.01136  -0.1376  0.3455  0.0310  -2.2538   0.0000   0.0000   0.0000   0.4055
   1.820   0.8090   0.01875   0.01137  -0.1375  0.3455  0.0313  -2.2546   0.0000   0.0000   0.0000   0.4052
   1.830   0.8098   0.01876   0.01139  -0.1375  0.3455  0.0315  -2.2554   0.0000   0.0000   0.0000   0.4050
   1.840   0.8106   0.01877   0.01140  -0.1374  0.3454  0.0317  -2.2562   0.0000   0.0000   0.0000   0.4048
   1.850   0.8113   0.01879   0.01141  -0.1374  0.3454  0.0319  -2.2570   0.0000   0.0000   0.0000   0.4045
   1.860   0.8121   0.01880   0.01143  -0.1373  0.3454  0.0321  -2.2578   0.0000   0.0000   0.0000   0.4043
   1.870   0.8129   0.01881   0.01144  -0.1373  0.3454  0.0324  -2.2586   0.0000   0.0000   0.0000   0.4040
   1.880   0.8136   0.01883   0.01146  -0.1373  0.3454  0.0326  -2.2593   0.0000   0.0000   0.0000   0.4038
   1.890   0.8144   0.01884   0.01147  -0.1372  0.3454  0.0329  -2.2601   0.0000   0.0000   0.0000   0.4035
   1.900   0.8151   0.01885   0.01149  -0.1372  0.3454  0.0333  -2.2609   0.0000   0.0000   0.0000   0.4033
   1.910   0.8158   0.01887   0.01150  -0.1371  0.3453  0.0337  -2.2617   0.0000   0.0000   0.0000   0.4031
   1.920   0.8166   0.01888   0.01152  -0.1371  0.3453  0.0341  -2.2624   0.0000   0.0000   0.0000   0.4028
   1.930   0.8173   0.01890   0.01153  -0.1370  0.3453  0.0346  -2.2632   0.0000   0.0000   0.0000   0.4026
   1.940   0.8180   0.01891   0.01155  -0.1370  0.3453  0.0352  -2.2639   0.0000   0.0000   0.0000   0.4023
   1.950   0.8188   0.01892   0.01156  -0.1369  0.3453  0.0359  -2.2647   0.0000   0.0000   0.0000   0.4021
   1.960   0.8195   0.01893   0.01158  -0.1369  0.3453  0.0367  -2.2654   0.0000   0.0000   0.0000   0.4019
   1.970   0.8202   0.01895   0.01159  -0.1368  0.3453  0.0376  -2.2662   0.0000   0.0000   0.0000   0.4016
   1.980   0.8209   0.01896   0.01160  -0.1368  0.3453  0.0387  -2.2669   0.0000   0.0000   0.0000   0.4014
   1.990   0.8216   0.01897   0.01162  -0.1367  0.3452  0.0399  -2.2677   0.0000   0.0000   0.0000   0.4012
   2.000   0.8223   0.01898   0.01163  -0.1367  0.3452  0.0413  -2.2684   0.0000   0.0000   0.0000   0.4009
   2.010   0.8230   0.01899   0.01164  -0.1366  0.3452  0.0429  -2.2691   0.0000   0.0000   0.0000   0.4007
   2.020   0.8237   0.01900   0.01166  -0.1366  0.3452  0.0448  -2.2698   0.0000   0.0000   0.0000   0.4004
   2.030   0.8243   0.01901   0.01167  -0.1365  0.3452  0.0469  -2.2705   0.0000   0.0000   0.0000   0.4002
   2.040   0.8250   0.01902   0.01169  -0.1365  0.3452  0.0494  -2.2712   0.0000   0.0000   0.0000   0.4000
   2.050   0.8256   0.01902   0.01170  -0.1364  0.3452  0.0522  -2.2719   0.0000   0.0000   0.0000   0.3997
   2.060   0.8263   0.01903   0.01171  -0.1364  0.3452  0.0556  -2.2726   0.0000   0.0000   0.0000   0.3995
   2.070   0.8269   0.01903   0.01173  -0.1363  0.3451  0.0597  -2.2733   0.0000   0.0000   0.0000   0.3993
   2.080   0.8275   0.01903   0.01174  -0.1362  0.3451  0.0633  -2.2739   0.0000   0.0000   0.0000   0.3990
   2.090   0.8282   0.01905   0.01176  -0.1362  0.3451  0.0637  -2.2747   0.0000   0.0000   0.0000   0.3988
   2.100   0.8290   0.01906   0.01177  -0.1361  0.3451  0.0639  -2.2755   0.0000   0.0000   0.0000   0.3986
   2.120   0.8305   0.01909   0.01180  -0.1361  0.3451  0.0647  -2.2770   0.0000   0.0000   0.0000   0.3981
   2.130   0.8313   0.01910   0.01182  -0.1360  0.3451  0.0651  -2.2778   0.0000   0.0000   0.0000   0.3979
   2.140   0.8320   0.01912   0.01183  -0.1360  0.3451  0.0654  -2.2786   0.0000   0.0000   0.0000   0.3977
   2.150   0.8328   0.01913   0.01185  -0.1359  0.3450  0.0657  -2.2794   0.0000   0.0000   0.0000   0.3974
   2.160   0.8336   0.01915   0.01187  -0.1359  0.3450  0.0660  -2.2802   0.0000   0.0000   0.0000   0.3972
   2.170   0.8343   0.01916   0.01188  -0.1359  0.3450  0.0663  -2.2810   0.0000   0.0000   0.0000   0.3970
   2.180   0.8351   0.01917   0.01190  -0.1358  0.3450  0.0665  -2.2818   0.0000   0.0000   0.0000   0.3967
   2.190   0.8359   0.01919   0.01191  -0.1358  0.3450  0.0668  -2.2826   0.0000   0.0000   0.0000   0.3965
   2.200   0.8367   0.01920   0.01193  -0.1358  0.3450  0.0671  -2.2834   0.0000   0.0000   0.0000   0.3963
   2.210   0.8374   0.01922   0.01194  -0.1357  0.3450  0.0673  -2.2842   0.0000   0.0000   0.0000   0.3960
   2.220   0.8382   0.01923   0.01196  -0.1357  0.3450  0.0675  -2.2850   0.0000   0.0000   0.0000   0.3958
   2.230   0.8390   0.01924   0.01197  -0.1356  0.3449  0.0677  -2.2858   0.0000   0.0000   0.0000   0.3956
   2.240   0.8398   0.01926   0.01199  -0.1356  0.3449  0.0680  -2.2866   0.0000   0.0000   0.0000   0.3954
   2.250   0.8406   0.01927   0.01200  -0.1356  0.3449  0.0682  -2.2874   0.0000   0.0000   0.0000   0.3951
   2.260   0.8414   0.01929   0.01202  -0.1355  0.3449  0.0684  -2.2882   0.0000   0.0000   0.0000   0.3949
   2.270   0.8421   0.01930   0.01203  -0.1355  0.3449  0.0685  -2.2890   0.0000   0.0000   0.0000   0.3947
   2.280   0.8429   0.01931   0.01205  -0.1355  0.3449  0.0687  -2.2898   0.0000   0.0000   0.0000   0.3945
   2.290   0.8437   0.01933   0.01206  -0.1354  0.3449  0.0689  -2.2907   0.0000   0.0000   0.0000   0.3942
   2.300   0.8445   0.01934   0.01208  -0.1354  0.3449  0.0691  -2.2915   0.0000   0.0000   0.0000   0.3940
   2.310   0.8453   0.01936   0.01209  -0.1353  0.3449  0.0693  -2.2923   0.0000   0.0000   0.0000   0.3938
   2.320   0.8461   0.01937   0.01211  -0.1353  0.3448  0.0695  -2.2931   0.0000   0.0000   0.0000   0.3936
   2.330   0.8469   0.01938   0.01212  -0.1353  0.3448  0.0697  -2.2939   0.0000   0.0000   0.0000   0.3933
   2.340   0.8476   0.01940   0.01214  -0.1352  0.3448  0.0699  -2.2947   0.0000   0.0000   0.0000   0.3931
   2.350   0.8484   0.01941   0.01215  -0.1352  0.3448  0.0701  -2.2955   0.0000   0.0000   0.0000   0.3929
   2.360   0.8492   0.01942   0.01217  -0.1352  0.3448  0.0703  -2.2963   0.0000   0.0000   0.0000   0.3927
   2.370   0.8500   0.01944   0.01218  -0.1351  0.3448  0.0705  -2.2971   0.0000   0.0000   0.0000   0.3925
   2.380   0.8508   0.01945   0.01220  -0.1351  0.3448  0.0707  -2.2979   0.0000   0.0000   0.0000   0.3922
   2.390   0.8516   0.01947   0.01221  -0.1351  0.3448  0.0709  -2.2988   0.0000   0.0000   0.0000   0.3920
   2.400   0.8524   0.01948   0.01223  -0.1350  0.3447  0.0711  -2.2996   0.0000   0.0000   0.0000   0.3918
   2.410   0.8532   0.01949   0.01224  -0.1350  0.3447  0.0712  -2.3004   0.0000   0.0000   0.0000   0.3916
   2.420   0.8540   0.01951   0.01226  -0.1349  0.3447  0.0714  -2.3012   0.0000   0.0000   0.0000   0.3914
   2.430   0.8548   0.01952   0.01227  -0.1349  0.3447  0.0716  -2.3020   0.0000   0.0000   0.0000   0.3911
   2.440   0.8556   0.01954   0.01229  -0.1349  0.3447  0.0717  -2.3028   0.0000   0.0000   0.0000   0.3909
   2.450   0.8564   0.01955   0.01230  -0.1348  0.3447  0.0719  -2.3037   0.0000   0.0000   0.0000   0.3907
   2.460   0.8572   0.01956   0.01232  -0.1348  0.3447  0.0720  -2.3045   0.0000   0.0000   0.0000   0.3905
   2.470   0.8580   0.01958   0.01233  -0.1348  0.3447  0.0722  -2.3053   0.0000   0.0000   0.0000   0.3903
   2.480   0.8588   0.01959   0.01235  -0.1347  0.3446  0.0723  -2.3061   0.0000   0.0000   0.0000   0.3900
   2.490   0.8596   0.01961   0.01236  -0.1347  0.3446  0.0724  -2.3069   0.0000   0.0000   0.0000   0.3898
   2.500   0.8604   0.01962   0.01238  -0.1347  0.3446  0.0726  -2.3077   0.0000   0.0000   0.0000   0.3896
   2.510   0.8612   0.01964   0.01239  -0.1346  0.3446  0.0727  -2.3086   0.0000   0.0000   0.0000   0.3894
   2.520   0.8620   0.01965   0.01241  -0.1346  0.3446  0.0728  -2.3094   0.0000   0.0000   0.0000   0.3892
   2.530   0.8628   0.01966   0.01242  -0.1346  0.3446  0.0729  -2.3102   0.0000   0.0000   0.0000   0.3890
   2.540   0.8636   0.01968   0.01244  -0.1345  0.3446  0.0730  -2.3111   0.0000   0.0000   0.0000   0.3887
   2.550   0.8644   0.01969   0.01245  -0.1345  0.3446  0.0731  -2.3119   0.0000   0.0000   0.0000   0.3885
   2.560   0.8652   0.01971   0.01247  -0.1345  0.3446  0.0732  -2.3128   0.0000   0.0000   0.0000   0.3883
   2.570   0.8660   0.01972   0.01248  -0.1344  0.3445  0.0733  -2.3136   0.0000   0.0000   0.0000   0.3881
   2.580   0.8668   0.01974   0.01250  -0.1344  0.3445  0.0733  -2.3145   0.0000   0.0000   0.0000   0.3879
   2.590   0.8676   0.01975   0.01251  -0.1344  0.3445  0.0734  -2.3154   0.0000   0.0000   0.0000   0.3877
   2.600   0.8684   0.01977   0.01253  -0.1343  0.3445  0.0735  -2.3162   0.0000   0.0000   0.0000   0.3875
   2.610   0.8692   0.01978   0.01254  -0.1343  0.3445  0.0735  -2.3171   0.0000   0.0000   0.0000   0.3873
   2.620   0.8700   0.01979   0.01256  -0.1343  0.3445  0.0736  -2.3179   0.0000   0.0000   0.0000   0.3870
   2.630   0.8708   0.01981   0.01257  -0.1342  0.3445  0.0737  -2.3188   0.0000   0.0000   0.0000   0.3868
   2.640   0.8716   0.01982   0.01259  -0.1342  0.3445  0.0737  -2.3196   0.0000   0.0000   0.0000   0.3866
   2.650   0.8724   0.01984   0.01260  -0.1342  0.3445  0.0737  -2.3205   0.0000   0.0000   0.0000   0.3864
   2.660   0.8732   0.01985   0.01262  -0.1341  0.3444  0.0738  -2.3214   0.0000   0.0000   0.0000   0.3862
   2.670   0.8740   0.01987   0.01263  -0.1341  0.3444  0.0738  -2.3222   0.0000   0.0000   0.0000   0.3860
   2.680   0.8748   0.01988   0.01265  -0.1341  0.3444  0.0738  -2.3230   0.0000   0.0000   0.0000   0.3858
   2.690   0.8756   0.01990   0.01266  -0.1340  0.3444  0.0739  -2.3239   0.0000   0.0000   0.0000   0.3856
   2.700   0.8764   0.01991   0.01268  -0.1340  0.3444  0.0739  -2.3247   0.0000   0.0000   0.0000   0.3854
   2.710   0.8772   0.01993   0.01270  -0.1340  0.3444  0.0739  -2.3255   0.0000   0.0000   0.0000   0.3852
   2.720   0.8780   0.01994   0.01271  -0.1339  0.3444  0.0740  -2.3264   0.0000   0.0000   0.0000   0.3850
   2.730   0.8787   0.01996   0.01273  -0.1339  0.3444  0.0740  -2.3272   0.0000   0.0000   0.0000   0.3848
   2.740   0.8795   0.01998   0.01275  -0.1339  0.3444  0.0740  -2.3280   0.0000   0.0000   0.0000   0.3845
   2.750   0.8802   0.01999   0.01276  -0.1338  0.3444  0.0741  -2.3288   0.0000   0.0000   0.0000   0.3843
   2.760   0.8810   0.02001   0.01278  -0.1338  0.3444  0.0741  -2.3296   0.0000   0.0000   0.0000   0.3841
   2.770   0.8818   0.02003   0.01280  -0.1337  0.3443  0.0742  -2.3304   0.0000   0.0000   0.0000   0.3839
   2.780   0.8825   0.02004   0.01282  -0.1337  0.3443  0.0742  -2.3312   0.0000   0.0000   0.0000   0.3837
   2.790   0.8833   0.02006   0.01284  -0.1337  0.3443  0.0742  -2.3320   0.0000   0.0000   0.0000   0.3835
   2.800   0.8840   0.02008   0.01285  -0.1336  0.3443  0.0743  -2.3328   0.0000   0.0000   0.0000   0.3833
   2.810   0.8848   0.02010   0.01287  -0.1336  0.3443  0.0743  -2.3336   0.0000   0.0000   0.0000   0.3831
   2.820   0.8855   0.02011   0.01289  -0.1335  0.3443  0.0743  -2.3344   0.0000   0.0000   0.0000   0.3829
   2.830   0.8863   0.02013   0.01291  -0.1335  0.3443  0.0744  -2.3352   0.0000   0.0000   0.0000   0.3827
   2.840   0.8870   0.02015   0.01293  -0.1335  0.3443  0.0744  -2.3360   0.0000   0.0000   0.0000   0.3825
   2.850   0.8878   0.02017   0.01295  -0.1334  0.3443  0.0745  -2.3368   0.0000   0.0000   0.0000   0.3823
   2.860   0.8885   0.02018   0.01296  -0.1334  0.3443  0.0745  -2.3376   0.0000   0.0000   0.0000   0.3821
   2.870   0.8893   0.02020   0.01298  -0.1334  0.3443  0.0746  -2.3384   0.0000   0.0000   0.0000   0.3819
   2.880   0.8900   0.02022   0.01300  -0.1333  0.3442  0.0746  -2.3392   0.0000   0.0000   0.0000   0.3817
   2.890   0.8907   0.02024   0.01302  -0.1333  0.3442  0.0746  -2.3400   0.0000   0.0000   0.0000   0.3815
   2.900   0.8915   0.02025   0.01304  -0.1332  0.3442  0.0747  -2.3407   0.0000   0.0000   0.0000   0.3813
   2.910   0.8922   0.02027   0.01306  -0.1332  0.3442  0.0747  -2.3415   0.0000   0.0000   0.0000   0.3811
   2.920   0.8930   0.02029   0.01307  -0.1332  0.3442  0.0748  -2.3423   0.0000   0.0000   0.0000   0.3809
   2.930   0.8937   0.02031   0.01309  -0.1331  0.3442  0.0748  -2.3431   0.0000   0.0000   0.0000   0.3807
   2.940   0.8945   0.02032   0.01311  -0.1331  0.3442  0.0749  -2.3439   0.0000   0.0000   0.0000   0.3805
   2.950   0.8953   0.02034   0.01313  -0.1330  0.3442  0.0749  -2.3447   0.0000   0.0000   0.0000   0.3803
   2.960   0.8960   0.02036   0.01315  -0.1330  0.3442  0.0750  -2.3455   0.0000   0.0000   0.0000   0.3801
   2.970   0.8968   0.02038   0.01316  -0.1330  0.3442  0.0750  -2.3463   0.0000   0.0000   0.0000   0.3799
   2.980   0.8975   0.02039   0.01318  -0.1329  0.3442  0.0751  -2.3471   0.0000   0.0000   0.0000   0.3797
   2.990   0.8983   0.02041   0.01320  -0.1329  0.3441  0.0751  -2.3479   0.0000   0.0000   0.0000   0.3795
   3.000   0.8991   0.02043   0.01322  -0.1329  0.3441  0.0752  -2.3487   0.0000   0.0000   0.0000   0.3793
   3.010   0.8998   0.02045   0.01324  -0.1328  0.3441  0.0752  -2.3495   0.0000   0.0000   0.0000   0.3791
   3.020   0.9006   0.02046   0.01325  -0.1328  0.3441  0.0753  -2.3504   0.0000   0.0000   0.0000   0.3790
   3.030   0.9014   0.02048   0.01327  -0.1328  0.3441  0.0753  -2.3512   0.0000   0.0000   0.0000   0.3788
   3.040   0.9021   0.02050   0.01329  -0.1327  0.3441  0.0754  -2.3520   0.0000   0.0000   0.0000   0.3786
   3.050   0.9029   0.02051   0.01331  -0.1327  0.3441  0.0754  -2.3528   0.0000   0.0000   0.0000   0.3784
   3.060   0.9037   0.02053   0.01332  -0.1327  0.3441  0.0755  -2.3536   0.0000   0.0000   0.0000   0.3782
   3.070   0.9044   0.02055   0.01334  -0.1326  0.3441  0.0755  -2.3544   0.0000   0.0000   0.0000   0.3780
   3.080   0.9052   0.02056   0.01336  -0.1326  0.3441  0.0756  -2.3552   0.0000   0.0000   0.0000   0.3778
   3.090   0.9060   0.02058   0.01338  -0.1325  0.3441  0.0756  -2.3561   0.0000   0.0000   0.0000   0.3776
   3.100   0.9068   0.02060   0.01339  -0.1325  0.3440  0.0757  -2.3569   0.0000   0.0000   0.0000   0.3774
   3.110   0.9076   0.02061   0.01341  -0.1325  0.3440  0.0757  -2.3577   0.0000   0.0000   0.0000   0.3772
   3.120   0.9083   0.02063   0.01343  -0.1324  0.3440  0.0758  -2.3585   0.0000   0.0000   0.0000   0.3770
   3.130   0.9091   0.02065   0.01345  -0.1324  0.3440  0.0758  -2.3594   0.0000   0.0000   0.0000   0.3768
   3.140   0.9099   0.02066   0.01346  -0.1324  0.3440  0.0759  -2.3602   0.0000   0.0000   0.0000   0.3766
   3.150   0.9107   0.02068   0.01348  -0.1323  0.3440  0.0759  -2.3610   0.0000   0.0000   0.0000   0.3764
   3.160   0.9115   0.02070   0.01350  -0.1323  0.3440  0.0760  -2.3618   0.0000   0.0000   0.0000   0.3763
   3.170   0.9123   0.02071   0.01351  -0.1323  0.3440  0.0760  -2.3627   0.0000   0.0000   0.0000   0.3761
   3.180   0.9130   0.02073   0.01353  -0.1322  0.3440  0.0760  -2.3635   0.0000   0.0000   0.0000   0.3759
   3.190   0.9138   0.02074   0.01355  -0.1322  0.3440  0.0761  -2.3643   0.0000   0.0000   0.0000   0.3757
   3.200   0.9146   0.02076   0.01357  -0.1322  0.3439  0.0761  -2.3651   0.0000   0.0000   0.0000   0.3755
   3.210   0.9154   0.02078   0.01358  -0.1321  0.3439  0.0762  -2.3660   0.0000   0.0000   0.0000   0.3753
   3.220   0.9162   0.02079   0.01360  -0.1321  0.3439  0.0762  -2.3668   0.0000   0.0000   0.0000   0.3751
   3.230   0.9170   0.02081   0.01362  -0.1321  0.3439  0.0763  -2.3676   0.0000   0.0000   0.0000   0.3749
   3.240   0.9178   0.02083   0.01363  -0.1321  0.3439  0.0763  -2.3685   0.0000   0.0000   0.0000   0.3747
   3.250   0.9186   0.02084   0.01365  -0.1320  0.3439  0.0764  -2.3693   0.0000   0.0000   0.0000   0.3745
   3.260   0.9194   0.02086   0.01367  -0.1320  0.3439  0.0764  -2.3701   0.0000   0.0000   0.0000   0.3744
   3.270   0.9202   0.02088   0.01369  -0.1320  0.3439  0.0765  -2.3709   0.0000   0.0000   0.0000   0.3742
   3.280   0.9210   0.02089   0.01370  -0.1319  0.3439  0.0765  -2.3718   0.0000   0.0000   0.0000   0.3740
   3.290   0.9217   0.02091   0.01372  -0.1319  0.3439  0.0766  -2.3726   0.0000   0.0000   0.0000   0.3738
   3.300   0.9225   0.02092   0.01374  -0.1319  0.3439  0.0766  -2.3734   0.0000   0.0000   0.0000   0.3736
   3.310   0.9233   0.02094   0.01375  -0.1318  0.3438  0.0767  -2.3743   0.0000   0.0000   0.0000   0.3734
   3.320   0.9241   0.02096   0.01377  -0.1318  0.3438  0.0767  -2.3751   0.0000   0.0000   0.0000   0.3732
   3.330   0.9249   0.02097   0.01379  -0.1318  0.3438  0.0768  -2.3759   0.0000   0.0000   0.0000   0.3731
   3.340   0.9257   0.02099   0.01380  -0.1317  0.3438  0.0768  -2.3768   0.0000   0.0000   0.0000   0.3729
   3.350   0.9265   0.02101   0.01382  -0.1317  0.3438  0.0768  -2.3776   0.0000   0.0000   0.0000   0.3727
   3.360   0.9273   0.02102   0.01384  -0.1317  0.3438  0.0769  -2.3784   0.0000   0.0000   0.0000   0.3725
   3.370   0.9281   0.02104   0.01385  -0.1316  0.3438  0.0769  -2.3793   0.0000   0.0000   0.0000   0.3723
   3.380   0.9289   0.02105   0.01387  -0.1316  0.3438  0.0770  -2.3801   0.0000   0.0000   0.0000   0.3721
   3.390   0.9297   0.02107   0.01389  -0.1316  0.3438  0.0770  -2.3809   0.0000   0.0000   0.0000   0.3720
   3.400   0.9305   0.02109   0.01391  -0.1315  0.3438  0.0770  -2.3818   0.0000   0.0000   0.0000   0.3718
   3.410   0.9313   0.02110   0.01392  -0.1315  0.3437  0.0771  -2.3826   0.0000   0.0000   0.0000   0.3716
   3.420   0.9321   0.02112   0.01394  -0.1315  0.3437  0.0771  -2.3834   0.0000   0.0000   0.0000   0.3714
   3.430   0.9329   0.02114   0.01396  -0.1315  0.3437  0.0772  -2.3843   0.0000   0.0000   0.0000   0.3712
   3.440   0.9337   0.02115   0.01397  -0.1314  0.3437  0.0772  -2.3851   0.0000   0.0000   0.0000   0.3710
   3.450   0.9345   0.02117   0.01399  -0.1314  0.3437  0.0772  -2.3859   0.0000   0.0000   0.0000   0.3709
   3.460   0.9353   0.02118   0.01401  -0.1314  0.3437  0.0773  -2.3868   0.0000   0.0000   0.0000   0.3707
   3.470   0.9361   0.02120   0.01403  -0.1313  0.3437  0.0773  -2.3876   0.0000   0.0000   0.0000   0.3705
   3.480   0.9369   0.02122   0.01404  -0.1313  0.3437  0.0773  -2.3884   0.0000   0.0000   0.0000   0.3703
   3.490   0.9377   0.02123   0.01406  -0.1313  0.3437  0.0774  -2.3893   0.0000   0.0000   0.0000   0.3701
   3.500   0.9384   0.02125   0.01408  -0.1312  0.3437  0.0774  -2.3901   0.0000   0.0000   0.0000   0.3700
   3.510   0.9392   0.02127   0.01409  -0.1312  0.3436  0.0774  -2.3909   0.0000   0.0000   0.0000   0.3698
   3.520   0.9400   0.02128   0.01411  -0.1312  0.3436  0.0775  -2.3918   0.0000   0.0000   0.0000   0.3696
   3.530   0.9408   0.02130   0.01413  -0.1311  0.3436  0.0775  -2.3926   0.0000   0.0000   0.0000   0.3694
   3.540   0.9416   0.02132   0.01415  -0.1311  0.3436  0.0775  -2.3934   0.0000   0.0000   0.0000   0.3692
   3.550   0.9424   0.02134   0.01417  -0.1311  0.3436  0.0776  -2.3942   0.0000   0.0000   0.0000   0.3691
   3.560   0.9431   0.02135   0.01418  -0.1311  0.3436  0.0776  -2.3950   0.0000   0.0000   0.0000   0.3689
   3.570   0.9439   0.02137   0.01420  -0.1310  0.3436  0.0776  -2.3958   0.0000   0.0000   0.0000   0.3687
   3.580   0.9447   0.02139   0.01422  -0.1310  0.3436  0.0776  -2.3966   0.0000   0.0000   0.0000   0.3685
   3.590   0.9454   0.02141   0.01424  -0.1309  0.3436  0.0777  -2.3974   0.0000   0.0000   0.0000   0.3684
   3.600   0.9462   0.02143   0.01426  -0.1309  0.3436  0.0777  -2.3981   0.0000   0.0000   0.0000   0.3682
   3.610   0.9469   0.02145   0.01428  -0.1309  0.3435  0.0777  -2.3989   0.0000   0.0000   0.0000   0.3680
   3.620   0.9477   0.02147   0.01430  -0.1308  0.3435  0.0777  -2.3997   0.0000   0.0000   0.0000   0.3678
   3.630   0.9484   0.02149   0.01432  -0.1308  0.3435  0.0778  -2.4005   0.0000   0.0000   0.0000   0.3677
   3.640   0.9491   0.02151   0.01434  -0.1308  0.3435  0.0778  -2.4012   0.0000   0.0000   0.0000   0.3675
   3.650   0.9499   0.02153   0.01436  -0.1307  0.3435  0.0778  -2.4020   0.0000   0.0000   0.0000   0.3673
   3.660   0.9506   0.02155   0.01439  -0.1307  0.3435  0.0778  -2.4027   0.0000   0.0000   0.0000   0.3671
   3.670   0.9513   0.02157   0.01441  -0.1307  0.3435  0.0779  -2.4035   0.0000   0.0000   0.0000   0.3670
   3.680   0.9520   0.02159   0.01443  -0.1306  0.3435  0.0779  -2.4043   0.0000   0.0000   0.0000   0.3668
   3.690   0.9528   0.02161   0.01445  -0.1306  0.3435  0.0779  -2.4050   0.0000   0.0000   0.0000   0.3666
   3.700   0.9535   0.02163   0.01447  -0.1305  0.3435  0.0779  -2.4058   0.0000   0.0000   0.0000   0.3665
   3.710   0.9542   0.02165   0.01449  -0.1305  0.3434  0.0779  -2.4065   0.0000   0.0000   0.0000   0.3663
   3.720   0.9550   0.02167   0.01451  -0.1305  0.3434  0.0780  -2.4073   0.0000   0.0000   0.0000   0.3661
   3.730   0.9557   0.02169   0.01453  -0.1304  0.3434  0.0780  -2.4080   0.0000   0.0000   0.0000   0.3659
   3.740   0.9564   0.02171   0.01456  -0.1304  0.3434  0.0780  -2.4088   0.0000   0.0000   0.0000   0.3658
   3.750   0.9571   0.02173   0.01458  -0.1304  0.3434  0.0780  -2.4095   0.0000   0.0000   0.0000   0.3656
   3.760   0.9579   0.02175   0.01460  -0.1303  0.3434  0.0781  -2.4103   0.0000   0.0000   0.0000   0.3654
   3.770   0.9586   0.02177   0.01462  -0.1303  0.3434  0.0781  -2.4110   0.0000   0.0000   0.0000   0.3653
   3.780   0.9593   0.02179   0.01464  -0.1302  0.3434  0.0781  -2.4118   0.0000   0.0000   0.0000   0.3651
   3.790   0.9600   0.02181   0.01466  -0.1302  0.3434  0.0781  -2.4126   0.0000   0.0000   0.0000   0.3649
   3.800   0.9608   0.02183   0.01468  -0.1302  0.3434  0.0782  -2.4133   0.0000   0.0000   0.0000   0.3647
   3.810   0.9615   0.02185   0.01470  -0.1301  0.3433  0.0782  -2.4141   0.0000   0.0000   0.0000   0.3646
   3.820   0.9623   0.02187   0.01472  -0.1301  0.3433  0.0782  -2.4148   0.0000   0.0000   0.0000   0.3644
   3.830   0.9630   0.02189   0.01474  -0.1301  0.3433  0.0782  -2.4156   0.0000   0.0000   0.0000   0.3642
   3.840   0.9637   0.02191   0.01476  -0.1300  0.3433  0.0782  -2.4164   0.0000   0.0000   0.0000   0.3641
   3.850   0.9645   0.02193   0.01479  -0.1300  0.3433  0.0783  -2.4171   0.0000   0.0000   0.0000   0.3639
   3.860   0.9652   0.02195   0.01481  -0.1300  0.3433  0.0783  -2.4179   0.0000   0.0000   0.0000   0.3637
   3.870   0.9660   0.02197   0.01483  -0.1299  0.3433  0.0783  -2.4187   0.0000   0.0000   0.0000   0.3636
   3.880   0.9667   0.02199   0.01485  -0.1299  0.3433  0.0783  -2.4195   0.0000   0.0000   0.0000   0.3634
   3.890   0.9675   0.02201   0.01487  -0.1299  0.3433  0.0784  -2.4202   0.0000   0.0000   0.0000   0.3632
   3.900   0.9682   0.02203   0.01489  -0.1298  0.3432  0.0784  -2.4210   0.0000   0.0000   0.0000   0.3631
   3.910   0.9690   0.02205   0.01491  -0.1298  0.3432  0.0784  -2.4218   0.0000   0.0000   0.0000   0.3629
   3.920   0.9697   0.02207   0.01493  -0.1298  0.3432  0.0784  -2.4226   0.0000   0.0000   0.0000   0.3627
   3.930   0.9705   0.02209   0.01495  -0.1297  0.3432  0.0785  -2.4234   0.0000   0.0000   0.0000   0.3626
   3.940   0.9713   0.02211   0.01497  -0.1297  0.3432  0.0785  -2.4241   0.0000   0.0000   0.0000   0.3624
   3.950   0.9720   0.02213   0.01499  -0.1297  0.3432  0.0785  -2.4249   0.0000   0.0000   0.0000   0.3622
   3.960   0.9728   0.02215   0.01501  -0.1296  0.3432  0.0785  -2.4257   0.0000   0.0000   0.0000   0.3621
   3.970   0.9735   0.02216   0.01503  -0.1296  0.3432  0.0786  -2.4265   0.0000   0.0000   0.0000   0.3619
   3.980   0.9743   0.02218   0.01505  -0.1296  0.3432  0.0786  -2.4273   0.0000   0.0000   0.0000   0.3617
   3.990   0.9751   0.02220   0.01507  -0.1295  0.3432  0.0786  -2.4281   0.0000   0.0000   0.0000   0.3616
   4.000   0.9758   0.02222   0.01508  -0.1295  0.3431  0.0786  -2.4289   0.0000   0.0000   0.0000   0.3614
   4.010   0.9766   0.02224   0.01510  -0.1295  0.3431  0.0787  -2.4297   0.0000   0.0000   0.0000   0.3612
   4.020   0.9774   0.02226   0.01512  -0.1294  0.3431  0.0787  -2.4304   0.0000   0.0000   0.0000   0.3611
   4.030   0.9781   0.02228   0.01514  -0.1294  0.3431  0.0787  -2.4312   0.0000   0.0000   0.0000   0.3609
   4.040   0.9789   0.02230   0.01516  -0.1294  0.3431  0.0787  -2.4320   0.0000   0.0000   0.0000   0.3608
   4.050   0.9797   0.02232   0.01518  -0.1293  0.3431  0.0787  -2.4328   0.0000   0.0000   0.0000   0.3606
   4.060   0.9804   0.02233   0.01520  -0.1293  0.3431  0.0788  -2.4336   0.0000   0.0000   0.0000   0.3604
   4.070   0.9812   0.02235   0.01522  -0.1293  0.3431  0.0788  -2.4344   0.0000   0.0000   0.0000   0.3603
   4.080   0.9820   0.02237   0.01524  -0.1293  0.3431  0.0788  -2.4352   0.0000   0.0000   0.0000   0.3601
   4.090   0.9828   0.02239   0.01526  -0.1292  0.3430  0.0788  -2.4360   0.0000   0.0000   0.0000   0.3599
   4.100   0.9835   0.02241   0.01528  -0.1292  0.3430  0.0789  -2.4368   0.0000   0.0000   0.0000   0.3598
   4.110   0.9843   0.02243   0.01530  -0.1292  0.3430  0.0789  -2.4376   0.0000   0.0000   0.0000   0.3596
   4.120   0.9851   0.02245   0.01532  -0.1291  0.3430  0.0789  -2.4384   0.0000   0.0000   0.0000   0.3595
   4.130   0.9858   0.02247   0.01534  -0.1291  0.3430  0.0789  -2.4392   0.0000   0.0000   0.0000   0.3593
   4.140   0.9866   0.02248   0.01536  -0.1291  0.3430  0.0790  -2.4400   0.0000   0.0000   0.0000   0.3591
   4.150   0.9874   0.02250   0.01538  -0.1290  0.3430  0.0790  -2.4408   0.0000   0.0000   0.0000   0.3590
   4.160   0.9882   0.02252   0.01540  -0.1290  0.3430  0.0790  -2.4416   0.0000   0.0000   0.0000   0.3588
   4.170   0.9889   0.02254   0.01542  -0.1290  0.3430  0.0790  -2.4424   0.0000   0.0000   0.0000   0.3587
   4.180   0.9897   0.02256   0.01544  -0.1289  0.3430  0.0791  -2.4432   0.0000   0.0000   0.0000   0.3585
   4.190   0.9905   0.02258   0.01545  -0.1289  0.3429  0.0791  -2.4440   0.0000   0.0000   0.0000   0.3583
   4.200   0.9913   0.02260   0.01547  -0.1289  0.3429  0.0791  -2.4448   0.0000   0.0000   0.0000   0.3582
   4.210   0.9921   0.02261   0.01549  -0.1289  0.3429  0.0791  -2.4456   0.0000   0.0000   0.0000   0.3580
   4.220   0.9928   0.02263   0.01551  -0.1288  0.3429  0.0792  -2.4464   0.0000   0.0000   0.0000   0.3579
   4.230   0.9936   0.02265   0.01553  -0.1288  0.3429  0.0792  -2.4472   0.0000   0.0000   0.0000   0.3577
   4.240   0.9944   0.02267   0.01555  -0.1288  0.3429  0.0792  -2.4480   0.0000   0.0000   0.0000   0.3575
   4.250   0.9952   0.02269   0.01557  -0.1287  0.3429  0.0792  -2.4488   0.0000   0.0000   0.0000   0.3574
   4.270   0.9967   0.02273   0.01561  -0.1287  0.3429  0.0793  -2.4504   0.0000   0.0000   0.0000   0.3571
   4.280   0.9975   0.02275   0.01563  -0.1287  0.3428  0.0793  -2.4512   0.0000   0.0000   0.0000   0.3569
   4.290   0.9983   0.02276   0.01565  -0.1286  0.3428  0.0794  -2.4520   0.0000   0.0000   0.0000   0.3568
   4.300   0.9991   0.02278   0.01567  -0.1286  0.3428  0.0794  -2.4528   0.0000   0.0000   0.0000   0.3566
   4.310   0.9999   0.02280   0.01569  -0.1286  0.3428  0.0794  -2.4536   0.0000   0.0000   0.0000   0.3564
   4.320   1.0006   0.02282   0.01571  -0.1285  0.3428  0.0794  -2.4544   0.0000   0.0000   0.0000   0.3563
   4.330   1.0014   0.02284   0.01573  -0.1285  0.3428  0.0795  -2.4552   0.0000   0.0000   0.0000   0.3561
   4.340   1.0022   0.02286   0.01575  -0.1285  0.3428  0.0795  -2.4560   0.0000   0.0000   0.0000   0.3560
   4.350   1.0030   0.02288   0.01577  -0.1284  0.3428  0.0795  -2.4568   0.0000   0.0000   0.0000   0.3558
   4.360   1.0037   0.02290   0.01579  -0.1284  0.3428  0.0795  -2.4575   0.0000   0.0000   0.0000   0.3557
   4.370   1.0045   0.02292   0.01581  -0.1284  0.3427  0.0796  -2.4583   0.0000   0.0000   0.0000   0.3555
   4.380   1.0052   0.02294   0.01583  -0.1284  0.3427  0.0796  -2.4591   0.0000   0.0000   0.0000   0.3554
   4.390   1.0060   0.02296   0.01585  -0.1283  0.3427  0.0796  -2.4598   0.0000   0.0000   0.0000   0.3552
   4.400   1.0067   0.02298   0.01587  -0.1283  0.3427  0.0797  -2.4606   0.0000   0.0000   0.0000   0.3550
   4.410   1.0075   0.02300   0.01590  -0.1283  0.3427  0.0797  -2.4613   0.0000   0.0000   0.0000   0.3549
   4.420   1.0082   0.02302   0.01592  -0.1282  0.3427  0.0797  -2.4621   0.0000   0.0000   0.0000   0.3547
   4.430   1.0089   0.02304   0.01594  -0.1282  0.3427  0.0798  -2.4628   0.0000   0.0000   0.0000   0.3546
   4.440   1.0096   0.02307   0.01596  -0.1282  0.3427  0.0798  -2.4635   0.0000   0.0000   0.0000   0.3544
   4.450   1.0103   0.02309   0.01599  -0.1281  0.3427  0.0798  -2.4643   0.0000   0.0000   0.0000   0.3543
   4.460   1.0111   0.02311   0.01601  -0.1281  0.3426  0.0798  -2.4650   0.0000   0.0000   0.0000   0.3541
   4.470   1.0118   0.02313   0.01603  -0.1280  0.3426  0.0799  -2.4657   0.0000   0.0000   0.0000   0.3540
   4.480   1.0125   0.02316   0.01606  -0.1280  0.3426  0.0799  -2.4664   0.0000   0.0000   0.0000   0.3538
   4.490   1.0132   0.02318   0.01608  -0.1280  0.3426  0.0799  -2.4671   0.0000   0.0000   0.0000   0.3537
   4.500   1.0139   0.02320   0.01611  -0.1279  0.3426  0.0800  -2.4678   0.0000   0.0000   0.0000   0.3535
   4.510   1.0146   0.02323   0.01613  -0.1279  0.3426  0.0800  -2.4686   0.0000   0.0000   0.0000   0.3534
   4.520   1.0153   0.02325   0.01616  -0.1279  0.3426  0.0800  -2.4693   0.0000   0.0000   0.0000   0.3532
   4.530   1.0160   0.02327   0.01618  -0.1278  0.3426  0.0801  -2.4700   0.0000   0.0000   0.0000   0.3531
   4.540   1.0167   0.02330   0.01620  -0.1278  0.3426  0.0801  -2.4707   0.0000   0.0000   0.0000   0.3529
   4.550   1.0174   0.02332   0.01623  -0.1278  0.3425  0.0802  -2.4714   0.0000   0.0000   0.0000   0.3528
   4.560   1.0181   0.02334   0.01625  -0.1277  0.3425  0.0802  -2.4721   0.0000   0.0000   0.0000   0.3526
   4.570   1.0188   0.02337   0.01628  -0.1277  0.3425  0.0803  -2.4728   0.0000   0.0000   0.0000   0.3525
   4.580   1.0195   0.02339   0.01630  -0.1276  0.3425  0.0803  -2.4735   0.0000   0.0000   0.0000   0.3523
   4.590   1.0202   0.02341   0.01632  -0.1276  0.3425  0.0804  -2.4742   0.0000   0.0000   0.0000   0.3522
   4.600   1.0209   0.02344   0.01635  -0.1276  0.3425  0.0804  -2.4749   0.0000   0.0000   0.0000   0.3520
   4.610   1.0216   0.02346   0.01637  -0.1275  0.3425  0.0805  -2.4756   0.0000   0.0000   0.0000   0.3519
   4.620   1.0223   0.02348   0.01640  -0.1275  0.3425  0.0806  -2.4764   0.0000   0.0000   0.0000   0.3517
   4.630   1.0230   0.02350   0.01642  -0.1275  0.3424  0.0806  -2.4771   0.0000   0.0000   0.0000   0.3516
   4.640   1.0238   0.02353   0.01644  -0.1274  0.3424  0.0807  -2.4778   0.0000   0.0000   0.0000   0.3514
   4.650   1.0245   0.02355   0.01647  -0.1274  0.3424  0.0807  -2.4785   0.0000   0.0000   0.0000   0.3513
   4.660   1.0252   0.02357   0.01649  -0.1274  0.3424  0.0808  -2.4793   0.0000   0.0000   0.0000   0.3511
   4.670   1.0259   0.02359   0.01651  -0.1273  0.3424  0.0809  -2.4800   0.0000   0.0000   0.0000   0.3510
   4.680   1.0266   0.02362   0.01654  -0.1273  0.3424  0.0810  -2.4807   0.0000   0.0000   0.0000   0.3508
   4.690   1.0274   0.02364   0.01656  -0.1273  0.3424  0.0811  -2.4815   0.0000   0.0000   0.0000   0.3507
   4.700   1.0281   0.02366   0.01658  -0.1272  0.3424  0.0811  -2.4822   0.0000   0.0000   0.0000   0.3506
   4.710   1.0288   0.02368   0.01661  -0.1272  0.3424  0.0812  -2.4829   0.0000   0.0000   0.0000   0.3504
   4.720   1.0296   0.02370   0.01663  -0.1272  0.3423  0.0813  -2.4837   0.0000   0.0000   0.0000   0.3503
   4.730   1.0303   0.02372   0.01665  -0.1271  0.3423  0.0814  -2.4844   0.0000   0.0000   0.0000   0.3501
   4.740   1.0310   0.02375   0.01667  -0.1271  0.3423  0.0815  -2.4851   0.0000   0.0000   0.0000   0.3500
   4.750   1.0318   0.02377   0.01670  -0.1271  0.3423  0.0816  -2.4859   0.0000   0.0000   0.0000   0.3498
   4.760   1.0325   0.02379   0.01672  -0.1270  0.3423  0.0818  -2.4866   0.0000   0.0000   0.0000   0.3497
   4.770   1.0332   0.02381   0.01674  -0.1270  0.3423  0.0819  -2.4874   0.0000   0.0000   0.0000   0.3495
   4.780   1.0340   0.02383   0.01676  -0.1270  0.3423  0.0820  -2.4881   0.0000   0.0000   0.0000   0.3494
   4.790   1.0347   0.02385   0.01679  -0.1270  0.3423  0.0821  -2.4889   0.0000   0.0000   0.0000   0.3492
   4.800   1.0355   0.02387   0.01681  -0.1269  0.3422  0.0822  -2.4896   0.0000   0.0000   0.0000   0.3491
   4.810   1.0362   0.02390   0.01683  -0.1269  0.3422  0.0823  -2.4904   0.0000   0.0000   0.0000   0.3490
   4.820   1.0369   0.02392   0.01685  -0.1269  0.3422  0.0825  -2.4911   0.0000   0.0000   0.0000   0.3488
   4.830   1.0377   0.02394   0.01687  -0.1268  0.3422  0.0826  -2.4919   0.0000   0.0000   0.0000   0.3487
   4.840   1.0384   0.02396   0.01690  -0.1268  0.3422  0.0827  -2.4926   0.0000   0.0000   0.0000   0.3485
   4.850   1.0392   0.02398   0.01692  -0.1268  0.3422  0.0828  -2.4934   0.0000   0.0000   0.0000   0.3484
   4.860   1.0399   0.02400   0.01694  -0.1267  0.3422  0.0830  -2.4941   0.0000   0.0000   0.0000   0.3482
   4.870   1.0407   0.02402   0.01696  -0.1267  0.3422  0.0831  -2.4949   0.0000   0.0000   0.0000   0.3481
   4.880   1.0414   0.02404   0.01698  -0.1267  0.3422  0.0832  -2.4956   0.0000   0.0000   0.0000   0.3480
   4.890   1.0422   0.02406   0.01701  -0.1266  0.3421  0.0834  -2.4964   0.0000   0.0000   0.0000   0.3478
   4.900   1.0429   0.02408   0.01703  -0.1266  0.3421  0.0835  -2.4971   0.0000   0.0000   0.0000   0.3477
   4.910   1.0437   0.02410   0.01705  -0.1266  0.3421  0.0836  -2.4979   0.0000   0.0000   0.0000   0.3475
   4.920   1.0444   0.02412   0.01707  -0.1266  0.3421  0.0838  -2.4987   0.0000   0.0000   0.0000   0.3474
   4.930   1.0452   0.02414   0.01709  -0.1265  0.3421  0.0839  -2.4994   0.0000   0.0000   0.0000   0.3472
   4.940   1.0460   0.02417   0.01711  -0.1265  0.3421  0.0840  -2.5002   0.0000   0.0000   0.0000   0.3471
   4.950   1.0467   0.02419   0.01714  -0.1265  0.3421  0.0842  -2.5009   0.0000   0.0000   0.0000   0.3470
   4.960   1.0475   0.02421   0.01716  -0.1264  0.3421  0.0843  -2.5017   0.0000   0.0000   0.0000   0.3468
   4.970   1.0482   0.02423   0.01718  -0.1264  0.3420  0.0844  -2.5025   0.0000   0.0000   0.0000   0.3467
   4.980   1.0490   0.02425   0.01720  -0.1264  0.3420  0.0846  -2.5032   0.0000   0.0000   0.0000   0.3465
   4.990   1.0497   0.02427   0.01722  -0.1264  0.3420  0.0847  -2.5040   0.0000   0.0000   0.0000   0.3464
   5.000   1.0505   0.02429   0.01724  -0.1263  0.3420  0.0848  -2.5048   0.0000   0.0000   0.0000   0.3463
   5.010   1.0513   0.02431   0.01727  -0.1263  0.3420  0.0850  -2.5055   0.0000   0.0000   0.0000   0.3461
   5.020   1.0520   0.02433   0.01729  -0.1263  0.3420  0.0851  -2.5063   0.0000   0.0000   0.0000   0.3460
   5.050   1.0543   0.02439   0.01735  -0.1262  0.3419  0.0861  -2.5086   0.0000   0.0000   0.0000   0.3456
   5.060   1.0550   0.02441   0.01737  -0.1262  0.3419  0.0865  -2.5093   0.0000   0.0000   0.0000   0.3454
   5.070   1.0558   0.02443   0.01740  -0.1261  0.3419  0.0869  -2.5101   0.0000   0.0000   0.0000   0.3453
   5.080   1.0566   0.02445   0.01742  -0.1261  0.3419  0.0874  -2.5108   0.0000   0.0000   0.0000   0.3451
   5.090   1.0573   0.02447   0.01744  -0.1261  0.3419  0.0879  -2.5116   0.0000   0.0000   0.0000   0.3450
   5.100   1.0581   0.02449   0.01746  -0.1260  0.3419  0.0883  -2.5124   0.0000   0.0000   0.0000   0.3449
   5.110   1.0588   0.02451   0.01748  -0.1260  0.3419  0.0889  -2.5131   0.0000   0.0000   0.0000   0.3447
   5.120   1.0596   0.02453   0.01750  -0.1260  0.3419  0.0894  -2.5139   0.0000   0.0000   0.0000   0.3446
   5.130   1.0603   0.02455   0.01753  -0.1259  0.3418  0.0900  -2.5146   0.0000   0.0000   0.0000   0.3445
   5.140   1.0611   0.02457   0.01755  -0.1259  0.3418  0.0906  -2.5154   0.0000   0.0000   0.0000   0.3443
   5.150   1.0618   0.02459   0.01757  -0.1259  0.3418  0.0913  -2.5161   0.0000   0.0000   0.0000   0.3442
   5.160   1.0626   0.02461   0.01759  -0.1259  0.3418  0.0919  -2.5169   0.0000   0.0000   0.0000   0.3440
   5.170   1.0633   0.02463   0.01761  -0.1258  0.3418  0.0926  -2.5176   0.0000   0.0000   0.0000   0.3439
   5.180   1.0641   0.02465   0.01764  -0.1258  0.3418  0.0934  -2.5184   0.0000   0.0000   0.0000   0.3438
   5.190   1.0648   0.02467   0.01766  -0.1258  0.3418  0.0942  -2.5191   0.0000   0.0000   0.0000   0.3436
   5.200   1.0655   0.02469   0.01768  -0.1257  0.3418  0.0951  -2.5198   0.0000   0.0000   0.0000   0.3435
   5.210   1.0663   0.02471   0.01770  -0.1257  0.3417  0.0959  -2.5206   0.0000   0.0000   0.0000   0.3434
   5.220   1.0670   0.02473   0.01773  -0.1257  0.3417  0.0969  -2.5213   0.0000   0.0000   0.0000   0.3432
   5.230   1.0677   0.02475   0.01775  -0.1256  0.3417  0.0978  -2.5220   0.0000   0.0000   0.0000   0.3431
   5.240   1.0684   0.02477   0.01777  -0.1256  0.3417  0.0988  -2.5227   0.0000   0.0000   0.0000   0.3429
   5.250   1.0691   0.02479   0.01780  -0.1256  0.3417  0.0999  -2.5234   0.0000   0.0000   0.0000   0.3428
   5.260   1.0698   0.02481   0.01782  -0.1255  0.3417  0.1009  -2.5240   0.0000   0.0000   0.0000   0.3427
   5.270   1.0705   0.02484   0.01785  -0.1255  0.3417  0.1020  -2.5247   0.0000   0.0000   0.0000   0.3425
   5.280   1.0711   0.02486   0.01788  -0.1255  0.3417  0.1031  -2.5254   0.0000   0.0000   0.0000   0.3424
   5.290   1.0718   0.02488   0.01790  -0.1254  0.3416  0.1043  -2.5260   0.0000   0.0000   0.0000   0.3423
   5.300   1.0725   0.02491   0.01793  -0.1254  0.3416  0.1054  -2.5267   0.0000   0.0000   0.0000   0.3421
   5.310   1.0731   0.02493   0.01796  -0.1253  0.3416  0.1067  -2.5273   0.0000   0.0000   0.0000   0.3420
   5.320   1.0738   0.02495   0.01798  -0.1253  0.3416  0.1079  -2.5280   0.0000   0.0000   0.0000   0.3419
   5.330   1.0744   0.02498   0.01801  -0.1253  0.3416  0.1092  -2.5286   0.0000   0.0000   0.0000   0.3417
   5.340   1.0751   0.02500   0.01804  -0.1252  0.3416  0.1105  -2.5293   0.0000   0.0000   0.0000   0.3416
   5.350   1.0758   0.02502   0.01807  -0.1252  0.3416  0.1118  -2.5299   0.0000   0.0000   0.0000   0.3415
   5.360   1.0764   0.02505   0.01809  -0.1252  0.3416  0.1132  -2.5306   0.0000   0.0000   0.0000   0.3413
   5.370   1.0771   0.02507   0.01812  -0.1251  0.3415  0.1146  -2.5312   0.0000   0.0000   0.0000   0.3412
   5.380   1.0777   0.02509   0.01815  -0.1251  0.3415  0.1160  -2.5319   0.0000   0.0000   0.0000   0.3411
   5.390   1.0784   0.02512   0.01818  -0.1250  0.3415  0.1174  -2.5325   0.0000   0.0000   0.0000   0.3409
   5.400   1.0790   0.02514   0.01820  -0.1250  0.3415  0.1188  -2.5331   0.0000   0.0000   0.0000   0.3408
   5.410   1.0797   0.02517   0.01823  -0.1250  0.3415  0.1203  -2.5338   0.0000   0.0000   0.0000   0.3407
   5.420   1.0803   0.02519   0.01826  -0.1249  0.3415  0.1218  -2.5344   0.0000   0.0000   0.0000   0.3405
   5.430   1.0810   0.02521   0.01829  -0.1249  0.3415  0.1233  -2.5350   0.0000   0.0000   0.0000   0.3404
   5.440   1.0816   0.02524   0.01831  -0.1249  0.3415  0.1247  -2.5357   0.0000   0.0000   0.0000   0.3403
   5.450   1.0823   0.02526   0.01834  -0.1248  0.3414  0.1262  -2.5363   0.0000   0.0000   0.0000   0.3402
   5.460   1.0830   0.02528   0.01837  -0.1248  0.3414  0.1277  -2.5370   0.0000   0.0000   0.0000   0.3400
   5.470   1.0836   0.02530   0.01840  -0.1247  0.3414  0.1292  -2.5376   0.0000   0.0000   0.0000   0.3399
   5.480   1.0843   0.02533   0.01842  -0.1247  0.3414  0.1307  -2.5383   0.0000   0.0000   0.0000   0.3398
   5.490   1.0850   0.02535   0.01845  -0.1247  0.3414  0.1321  -2.5390   0.0000   0.0000   0.0000   0.3396
   5.500   1.0857   0.02537   0.01848  -0.1246  0.3414  0.1335  -2.5396   0.0000   0.0000   0.0000   0.3395
   5.510   1.0863   0.02539   0.01850  -0.1246  0.3413  0.1348  -2.5403   0.0000   0.0000   0.0000   0.3394
   5.520   1.0870   0.02542   0.01853  -0.1246  0.3413  0.1362  -2.5410   0.0000   0.0000   0.0000   0.3392
   5.530   1.0877   0.02544   0.01856  -0.1245  0.3413  0.1376  -2.5416   0.0000   0.0000   0.0000   0.3391
   5.540   1.0884   0.02546   0.01858  -0.1245  0.3413  0.1390  -2.5423   0.0000   0.0000   0.0000   0.3390
   5.550   1.0891   0.02548   0.01861  -0.1245  0.3413  0.1405  -2.5430   0.0000   0.0000   0.0000   0.3388
   5.560   1.0898   0.02550   0.01864  -0.1244  0.3413  0.1420  -2.5437   0.0000   0.0000   0.0000   0.3387
   5.570   1.0905   0.02553   0.01866  -0.1244  0.3412  0.1431  -2.5443   0.0000   0.0000   0.0000   0.3386
   5.580   1.0912   0.02555   0.01869  -0.1244  0.3412  0.1434  -2.5450   0.0000   0.0000   0.0000   0.3385
   5.590   1.0919   0.02558   0.01871  -0.1243  0.3412  0.1436  -2.5457   0.0000   0.0000   0.0000   0.3383
   5.600   1.0926   0.02560   0.01874  -0.1243  0.3412  0.1438  -2.5464   0.0000   0.0000   0.0000   0.3382
   5.610   1.0933   0.02562   0.01876  -0.1243  0.3412  0.1439  -2.5471   0.0000   0.0000   0.0000   0.3381
   5.620   1.0940   0.02565   0.01879  -0.1242  0.3411  0.1440  -2.5478   0.0000   0.0000   0.0000   0.3380
   5.630   1.0948   0.02567   0.01882  -0.1242  0.3411  0.1441  -2.5485   0.0000   0.0000   0.0000   0.3378
   5.640   1.0955   0.02570   0.01884  -0.1242  0.3411  0.1442  -2.5492   0.0000   0.0000   0.0000   0.3377
   5.650   1.0962   0.02572   0.01887  -0.1242  0.3411  0.1444  -2.5499   0.0000   0.0000   0.0000   0.3376
   5.660   1.0969   0.02575   0.01889  -0.1241  0.3411  0.1445  -2.5507   0.0000   0.0000   0.0000   0.3374
   5.670   1.0976   0.02577   0.01892  -0.1241  0.3410  0.1448  -2.5514   0.0000   0.0000   0.0000   0.3373
   5.680   1.0984   0.02579   0.01894  -0.1241  0.3410  0.1451  -2.5521   0.0000   0.0000   0.0000   0.3372
   5.690   1.0991   0.02582   0.01897  -0.1240  0.3410  0.1453  -2.5528   0.0000   0.0000   0.0000   0.3371
   5.700   1.0998   0.02584   0.01899  -0.1240  0.3410  0.1456  -2.5535   0.0000   0.0000   0.0000   0.3369
   5.710   1.1006   0.02586   0.01902  -0.1240  0.3409  0.1459  -2.5542   0.0000   0.0000   0.0000   0.3368
   5.720   1.1013   0.02589   0.01904  -0.1240  0.3409  0.1462  -2.5549   0.0000   0.0000   0.0000   0.3367
   5.730   1.1020   0.02591   0.01907  -0.1239  0.3409  0.1465  -2.5557   0.0000   0.0000   0.0000   0.3366
   5.740   1.1027   0.02593   0.01909  -0.1239  0.3409  0.1468  -2.5564   0.0000   0.0000   0.0000   0.3364
   5.750   1.1035   0.02596   0.01912  -0.1239  0.3408  0.1471  -2.5571   0.0000   0.0000   0.0000   0.3363
   5.760   1.1042   0.02598   0.01914  -0.1239  0.3408  0.1474  -2.5578   0.0000   0.0000   0.0000   0.3362
   5.770   1.1049   0.02600   0.01917  -0.1238  0.3408  0.1477  -2.5585   0.0000   0.0000   0.0000   0.3361
   5.780   1.1057   0.02603   0.01919  -0.1238  0.3408  0.1480  -2.5592   0.0000   0.0000   0.0000   0.3359
   5.790   1.1064   0.02605   0.01922  -0.1238  0.3407  0.1483  -2.5600   0.0000   0.0000   0.0000   0.3358
   5.800   1.1071   0.02607   0.01924  -0.1237  0.3407  0.1486  -2.5607   0.0000   0.0000   0.0000   0.3357
   5.810   1.1079   0.02610   0.01927  -0.1237  0.3407  0.1489  -2.5614   0.0000   0.0000   0.0000   0.3356
   5.820   1.1086   0.02612   0.01929  -0.1237  0.3407  0.1493  -2.5621   0.0000   0.0000   0.0000   0.3354
   5.830   1.1093   0.02614   0.01932  -0.1237  0.3406  0.1496  -2.5628   0.0000   0.0000   0.0000   0.3353
   5.840   1.1101   0.02617   0.01934  -0.1236  0.3406  0.1499  -2.5635   0.0000   0.0000   0.0000   0.3352
   5.850   1.1108   0.02619   0.01937  -0.1236  0.3406  0.1503  -2.5643   0.0000   0.0000   0.0000   0.3351
   5.860   1.1115   0.02621   0.01939  -0.1236  0.3405  0.1506  -2.5650   0.0000   0.0000   0.0000   0.3349
   5.870   1.1123   0.02624   0.01941  -0.1235  0.3405  0.1510  -2.5657   0.0000   0.0000   0.0000   0.3348
   5.880   1.1130   0.02626   0.01944  -0.1235  0.3405  0.1513  -2.5664   0.0000   0.0000   0.0000   0.3347
   5.890   1.1137   0.02629   0.01946  -0.1235  0.3405  0.1515  -2.5671   0.0000   0.0000   0.0000   0.3346
   5.900   1.1144   0.02631   0.01949  -0.1235  0.3404  0.1518  -2.5678   0.0000   0.0000   0.0000   0.3345
   5.910   1.1152   0.02633   0.01951  -0.1234  0.3404  0.1520  -2.5686   0.0000   0.0000   0.0000   0.3343
   5.920   1.1159   0.02636   0.01954  -0.1234  0.3404  0.1522  -2.5693   0.0000   0.0000   0.0000   0.3342
   5.930   1.1166   0.02638   0.01957  -0.1234  0.3403  0.1524  -2.5700   0.0000   0.0000   0.0000   0.3341
   5.940   1.1174   0.02641   0.01959  -0.1234  0.3403  0.1526  -2.5707   0.0000   0.0000   0.0000   0.3340
   5.950   1.1181   0.02643   0.01962  -0.1233  0.3403  0.1529  -2.5714   0.0000   0.0000   0.0000   0.3338
   5.960   1.1188   0.02645   0.01964  -0.1233  0.3402  0.1531  -2.5721   0.0000   0.0000   0.0000   0.3337
   5.970   1.1196   0.02648   0.01967  -0.1233  0.3402  0.1533  -2.5728   0.0000   0.0000   0.0000   0.3336
   5.980   1.1203   0.02650   0.01969  -0.1233  0.3402  0.1536  -2.5735   0.0000   0.0000   0.0000   0.3335
   5.990   1.1210   0.02653   0.01972  -0.1232  0.3402  0.1539  -2.5743   0.0000   0.0000   0.0000   0.3334
   6.000   1.1217   0.02655   0.01974  -0.1232  0.3401  0.1542  -2.5750   0.0000   0.0000   0.0000   0.3332
   6.010   1.1225   0.02657   0.01977  -0.1232  0.3401  0.1546  -2.5757   0.0000   0.0000   0.0000   0.3331
   6.020   1.1232   0.02660   0.01979  -0.1231  0.3401  0.1550  -2.5764   0.0000   0.0000   0.0000   0.3330
   6.030   1.1239   0.02662   0.01982  -0.1231  0.3400  0.1554  -2.5771   0.0000   0.0000   0.0000   0.3329
   6.040   1.1246   0.02664   0.01985  -0.1231  0.3400  0.1558  -2.5778   0.0000   0.0000   0.0000   0.3328
   6.050   1.1253   0.02667   0.01987  -0.1231  0.3400  0.1563  -2.5785   0.0000   0.0000   0.0000   0.3326
   6.060   1.1261   0.02669   0.01990  -0.1230  0.3399  0.1567  -2.5792   0.0000   0.0000   0.0000   0.3325
   6.070   1.1268   0.02672   0.01992  -0.1230  0.3399  0.1571  -2.5799   0.0000   0.0000   0.0000   0.3324
   6.080   1.1275   0.02674   0.01995  -0.1230  0.3398  0.1576  -2.5806   0.0000   0.0000   0.0000   0.3323
   6.090   1.1282   0.02676   0.01998  -0.1229  0.3398  0.1581  -2.5813   0.0000   0.0000   0.0000   0.3322
   6.100   1.1289   0.02679   0.02000  -0.1229  0.3398  0.1586  -2.5819   0.0000   0.0000   0.0000   0.3320
   6.110   1.1296   0.02682   0.02003  -0.1229  0.3397  0.1591  -2.5826   0.0000   0.0000   0.0000   0.3319
   6.120   1.1303   0.02684   0.02006  -0.1229  0.3397  0.1596  -2.5832   0.0000   0.0000   0.0000   0.3318
   6.130   1.1309   0.02687   0.02009  -0.1228  0.3397  0.1601  -2.5839   0.0000   0.0000   0.0000   0.3317
   6.140   1.1316   0.02690   0.02012  -0.1228  0.3396  0.1606  -2.5845   0.0000   0.0000   0.0000   0.3316
   6.150   1.1322   0.02693   0.02015  -0.1228  0.3396  0.1611  -2.5851   0.0000   0.0000   0.0000   0.3315
   6.160   1.1329   0.02696   0.02018  -0.1227  0.3396  0.1616  -2.5857   0.0000   0.0000   0.0000   0.3313
   6.170   1.1335   0.02699   0.02021  -0.1227  0.3395  0.1621  -2.5863   0.0000   0.0000   0.0000   0.3312
   6.180   1.1341   0.02702   0.02024  -0.1227  0.3395  0.1625  -2.5869   0.0000   0.0000   0.0000   0.3311
   6.190   1.1348   0.02705   0.02028  -0.1226  0.3395  0.1628  -2.5875   0.0000   0.0000   0.0000   0.3310
   6.200   1.1354   0.02708   0.02031  -0.1226  0.3394  0.1632  -2.5881   0.0000   0.0000   0.0000   0.3309
   6.210   1.1360   0.02711   0.02034  -0.1225  0.3394  0.1635  -2.5887   0.0000   0.0000   0.0000   0.3307
   6.220   1.1366   0.02714   0.02037  -0.1225  0.3393  0.1639  -2.5892   0.0000   0.0000   0.0000   0.3306
   6.230   1.1372   0.02717   0.02041  -0.1225  0.3393  0.1642  -2.5898   0.0000   0.0000   0.0000   0.3305
   6.240   1.1378   0.02720   0.02044  -0.1224  0.3393  0.1645  -2.5904   0.0000   0.0000   0.0000   0.3304
   6.260   1.1391   0.02726   0.02051  -0.1224  0.3392  0.1653  -2.5915   0.0000   0.0000   0.0000   0.3302
   6.270   1.1397   0.02730   0.02054  -0.1223  0.3391  0.1658  -2.5921   0.0000   0.0000   0.0000   0.3300
   6.280   1.1403   0.02733   0.02057  -0.1223  0.3391  0.1662  -2.5926   0.0000   0.0000   0.0000   0.3299
   6.290   1.1409   0.02736   0.02061  -0.1222  0.3391  0.1667  -2.5932   0.0000   0.0000   0.0000   0.3298
   6.300   1.1415   0.02739   0.02064  -0.1222  0.3390  0.1672  -2.5938   0.0000   0.0000   0.0000   0.3297
   6.310   1.1421   0.02742   0.02067  -0.1222  0.3390  0.1678  -2.5944   0.0000   0.0000   0.0000   0.3296
   6.320   1.1427   0.02745   0.02070  -0.1221  0.3390  0.1683  -2.5949   0.0000   0.0000   0.0000   0.3295
   6.330   1.1434   0.02748   0.02074  -0.1221  0.3389  0.1689  -2.5955   0.0000   0.0000   0.0000   0.3294
   6.340   1.1440   0.02751   0.02077  -0.1221  0.3389  0.1694  -2.5961   0.0000   0.0000   0.0000   0.3292
   6.350   1.1446   0.02754   0.02080  -0.1220  0.3388  0.1700  -2.5967   0.0000   0.0000   0.0000   0.3291
   6.360   1.1453   0.02757   0.02083  -0.1220  0.3388  0.1705  -2.5973   0.0000   0.0000   0.0000   0.3290
   6.370   1.1459   0.02760   0.02086  -0.1220  0.3388  0.1711  -2.5979   0.0000   0.0000   0.0000   0.3289
   6.380   1.1466   0.02763   0.02090  -0.1219  0.3387  0.1717  -2.5985   0.0000   0.0000   0.0000   0.3288
   6.390   1.1472   0.02766   0.02093  -0.1219  0.3387  0.1723  -2.5991   0.0000   0.0000   0.0000   0.3287
   6.400   1.1479   0.02769   0.02096  -0.1219  0.3386  0.1728  -2.5998   0.0000   0.0000   0.0000   0.3286
   6.410   1.1485   0.02771   0.02099  -0.1218  0.3386  0.1734  -2.6004   0.0000   0.0000   0.0000   0.3284
   6.420   1.1492   0.02774   0.02102  -0.1218  0.3386  0.1740  -2.6010   0.0000   0.0000   0.0000   0.3283
   6.430   1.1499   0.02777   0.02105  -0.1218  0.3385  0.1745  -2.6016   0.0000   0.0000   0.0000   0.3282
   6.440   1.1505   0.02780   0.02108  -0.1218  0.3385  0.1749  -2.6023   0.0000   0.0000   0.0000   0.3281
   6.450   1.1512   0.02783   0.02111  -0.1217  0.3385  0.1754  -2.6029   0.0000   0.0000   0.0000   0.3280
   6.460   1.1519   0.02786   0.02114  -0.1217  0.3384  0.1758  -2.6035   0.0000   0.0000   0.0000   0.3279
   6.470   1.1525   0.02788   0.02117  -0.1217  0.3384  0.1761  -2.6042   0.0000   0.0000   0.0000   0.3278
   6.490   1.1539   0.02794   0.02123  -0.1216  0.3383  0.1770  -2.6055   0.0000   0.0000   0.0000   0.3275
   6.500   1.1546   0.02797   0.02126  -0.1216  0.3383  0.1775  -2.6061   0.0000   0.0000   0.0000   0.3274
   6.510   1.1553   0.02800   0.02129  -0.1215  0.3382  0.1779  -2.6067   0.0000   0.0000   0.0000   0.3273
   6.520   1.1559   0.02802   0.02132  -0.1215  0.3382  0.1783  -2.6074   0.0000   0.0000   0.0000   0.3272
   6.530   1.1566   0.02805   0.02135  -0.1215  0.3382  0.1786  -2.6080   0.0000   0.0000   0.0000   0.3271
   6.540   1.1573   0.02808   0.02138  -0.1215  0.3381  0.1790  -2.6087   0.0000   0.0000   0.0000   0.3270
   6.550   1.1580   0.02811   0.02141  -0.1214  0.3381  0.1794  -2.6093   0.0000   0.0000   0.0000   0.3269
   6.560   1.1587   0.02813   0.02144  -0.1214  0.3381  0.1798  -2.6100   0.0000   0.0000   0.0000   0.3268
   6.570   1.1594   0.02816   0.02147  -0.1214  0.3380  0.1802  -2.6106   0.0000   0.0000   0.0000   0.3266
   6.580   1.1601   0.02819   0.02149  -0.1214  0.3380  0.1805  -2.6113   0.0000   0.0000   0.0000   0.3265
   6.590   1.1608   0.02822   0.02152  -0.1213  0.3380  0.1809  -2.6119   0.0000   0.0000   0.0000   0.3264
   6.600   1.1614   0.02824   0.02155  -0.1213  0.3379  0.1813  -2.6126   0.0000   0.0000   0.0000   0.3263
   6.610   1.1621   0.02827   0.02158  -0.1213  0.3379  0.1816  -2.6133   0.0000   0.0000   0.0000   0.3262
   6.620   1.1628   0.02830   0.02161  -0.1212  0.3379  0.1820  -2.6139   0.0000   0.0000   0.0000   0.3261
   6.630   1.1635   0.02833   0.02164  -0.1212  0.3378  0.1823  -2.6146   0.0000   0.0000   0.0000   0.3260
   6.640   1.1642   0.02835   0.02167  -0.1212  0.3378  0.1827  -2.6152   0.0000   0.0000   0.0000   0.3259
   6.650   1.1649   0.02838   0.02170  -0.1212  0.3378  0.1830  -2.6159   0.0000   0.0000   0.0000   0.3258
   6.660   1.1656   0.02841   0.02173  -0.1211  0.3377  0.1833  -2.6165   0.0000   0.0000   0.0000   0.3256
   6.670   1.1663   0.02844   0.02175  -0.1211  0.3377  0.1836  -2.6172   0.0000   0.0000   0.0000   0.3255
   6.680   1.1670   0.02846   0.02178  -0.1211  0.3377  0.1839  -2.6179   0.0000   0.0000   0.0000   0.3254
   6.690   1.1677   0.02849   0.02181  -0.1211  0.3376  0.1842  -2.6185   0.0000   0.0000   0.0000   0.3253
   6.700   1.1684   0.02852   0.02184  -0.1210  0.3376  0.1845  -2.6192   0.0000   0.0000   0.0000   0.3252
   6.710   1.1691   0.02854   0.02187  -0.1210  0.3376  0.1849  -2.6198   0.0000   0.0000   0.0000   0.3251
   6.720   1.1698   0.02857   0.02190  -0.1210  0.3375  0.1852  -2.6205   0.0000   0.0000   0.0000   0.3250
   6.730   1.1705   0.02860   0.02193  -0.1210  0.3375  0.1855  -2.6212   0.0000   0.0000   0.0000   0.3249
   6.740   1.1712   0.02863   0.02195  -0.1209  0.3375  0.1858  -2.6218   0.0000   0.0000   0.0000   0.3248
   6.750   1.1719   0.02865   0.02198  -0.1209  0.3375  0.1861  -2.6225   0.0000   0.0000   0.0000   0.3247
   6.760   1.1727   0.02868   0.02201  -0.1209  0.3374  0.1864  -2.6232   0.0000   0.0000   0.0000   0.3246
   6.770   1.1734   0.02871   0.02204  -0.1209  0.3374  0.1868  -2.6238   0.0000   0.0000   0.0000   0.3244
   6.780   1.1741   0.02873   0.02207  -0.1208  0.3374  0.1871  -2.6245   0.0000   0.0000   0.0000   0.3243
   6.790   1.1748   0.02876   0.02210  -0.1208  0.3374  0.1874  -2.6252   0.0000   0.0000   0.0000   0.3242
   6.800   1.1755   0.02879   0.02212  -0.1208  0.3373  0.1878  -2.6258   0.0000   0.0000   0.0000   0.3241
   6.810   1.1762   0.02881   0.02215  -0.1208  0.3373  0.1881  -2.6265   0.0000   0.0000   0.0000   0.3240
   6.820   1.1769   0.02884   0.02218  -0.1207  0.3373  0.1885  -2.6272   0.0000   0.0000   0.0000   0.3239
   6.830   1.1776   0.02887   0.02221  -0.1207  0.3373  0.1889  -2.6278   0.0000   0.0000   0.0000   0.3238
   6.840   1.1783   0.02889   0.02224  -0.1207  0.3373  0.1893  -2.6285   0.0000   0.0000   0.0000   0.3237
   6.850   1.1790   0.02892   0.02227  -0.1207  0.3372  0.1897  -2.6292   0.0000   0.0000   0.0000   0.3236
   6.860   1.1798   0.02894   0.02229  -0.1206  0.3372  0.1901  -2.6298   0.0000   0.0000   0.0000   0.3235
   6.870   1.1805   0.02897   0.02232  -0.1206  0.3372  0.1905  -2.6305   0.0000   0.0000   0.0000   0.3234
   6.880   1.1812   0.02900   0.02235  -0.1206  0.3372  0.1909  -2.6312   0.0000   0.0000   0.0000   0.3233
   6.890   1.1819   0.02902   0.02238  -0.1206  0.3372  0.1913  -2.6318   0.0000   0.0000   0.0000   0.3232
   6.900   1.1826   0.02905   0.02241  -0.1205  0.3372  0.1917  -2.6325   0.0000   0.0000   0.0000   0.3230
   6.910   1.1833   0.02908   0.02244  -0.1205  0.3371  0.1921  -2.6332   0.0000   0.0000   0.0000   0.3229
   6.920   1.1840   0.02910   0.02246  -0.1205  0.3371  0.1925  -2.6338   0.0000   0.0000   0.0000   0.3228
   6.930   1.1848   0.02913   0.02249  -0.1205  0.3371  0.1930  -2.6345   0.0000   0.0000   0.0000   0.3227
   6.940   1.1855   0.02916   0.02252  -0.1204  0.3371  0.1934  -2.6351   0.0000   0.0000   0.0000   0.3226
   6.950   1.1862   0.02918   0.02255  -0.1204  0.3371  0.1939  -2.6358   0.0000   0.0000   0.0000   0.3225
   6.960   1.1868   0.02921   0.02258  -0.1204  0.3371  0.1943  -2.6364   0.0000   0.0000   0.0000   0.3224
   6.970   1.1875   0.02924   0.02261  -0.1204  0.3370  0.1948  -2.6370   0.0000   0.0000   0.0000   0.3223
   6.980   1.1882   0.02927   0.02264  -0.1203  0.3370  0.1953  -2.6377   0.0000   0.0000   0.0000   0.3222
   6.990   1.1889   0.02930   0.02268  -0.1203  0.3370  0.1958  -2.6383   0.0000   0.0000   0.0000   0.3221
   7.000   1.1895   0.02933   0.02271  -0.1203  0.3370  0.1964  -2.6388   0.0000   0.0000   0.0000   0.3220
   7.010   1.1901   0.02936   0.02274  -0.1203  0.3370  0.1969  -2.6394   0.0000   0.0000   0.0000   0.3219
   7.020   1.1908   0.02939   0.02278  -0.1202  0.3370  0.1975  -2.6400   0.0000   0.0000   0.0000   0.3218
   7.030   1.1914   0.02943   0.02281  -0.1202  0.3369  0.1981  -2.6405   0.0000   0.0000   0.0000   0.3217
   7.040   1.1920   0.02946   0.02285  -0.1202  0.3369  0.1987  -2.6411   0.0000   0.0000   0.0000   0.3216
   7.050   1.1926   0.02949   0.02288  -0.1201  0.3369  0.1994  -2.6416   0.0000   0.0000   0.0000   0.3215
   7.060   1.1932   0.02953   0.02292  -0.1201  0.3369  0.2001  -2.6421   0.0000   0.0000   0.0000   0.3214
   7.070   1.1938   0.02956   0.02295  -0.1201  0.3369  0.2007  -2.6427   0.0000   0.0000   0.0000   0.3213
   7.080   1.1945   0.02959   0.02299  -0.1200  0.3369  0.2012  -2.6432   0.0000   0.0000   0.0000   0.3212
   7.090   1.1951   0.02963   0.02302  -0.1200  0.3368  0.2018  -2.6437   0.0000   0.0000   0.0000   0.3211
   7.100   1.1957   0.02966   0.02306  -0.1200  0.3368  0.2024  -2.6443   0.0000   0.0000   0.0000   0.3210
   7.110   1.1963   0.02969   0.02310  -0.1199  0.3368  0.2029  -2.6448   0.0000   0.0000   0.0000   0.3209
   7.120   1.1969   0.02973   0.02313  -0.1199  0.3368  0.2035  -2.6453   0.0000   0.0000   0.0000   0.3207
   7.130   1.1975   0.02976   0.02317  -0.1199  0.3368  0.2040  -2.6459   0.0000   0.0000   0.0000   0.3206
   7.140   1.1981   0.02979   0.02321  -0.1199  0.3367  0.2046  -2.6464   0.0000   0.0000   0.0000   0.3205
   7.150   1.1987   0.02983   0.02324  -0.1198  0.3367  0.2052  -2.6470   0.0000   0.0000   0.0000   0.3204
   7.160   1.1994   0.02986   0.02328  -0.1198  0.3367  0.2057  -2.6475   0.0000   0.0000   0.0000   0.3203
   7.170   1.2000   0.02989   0.02331  -0.1198  0.3367  0.2063  -2.6480   0.0000   0.0000   0.0000   0.3202
   7.180   1.2006   0.02993   0.02335  -0.1197  0.3367  0.2069  -2.6486   0.0000   0.0000   0.0000   0.3201
   7.190   1.2012   0.02996   0.02338  -0.1197  0.3367  0.2076  -2.6491   0.0000   0.0000   0.0000   0.3200
   7.200   1.2019   0.02999   0.02342  -0.1197  0.3366  0.2082  -2.6497   0.0000   0.0000   0.0000   0.3199
   7.210   1.2025   0.03002   0.02345  -0.1196  0.3366  0.2089  -2.6503   0.0000   0.0000   0.0000   0.3198
   7.220   1.2032   0.03006   0.02349  -0.1196  0.3366  0.2096  -2.6508   0.0000   0.0000   0.0000   0.3197
   7.230   1.2038   0.03009   0.02352  -0.1196  0.3366  0.2103  -2.6514   0.0000   0.0000   0.0000   0.3196
   7.240   1.2045   0.03012   0.02355  -0.1196  0.3366  0.2111  -2.6520   0.0000   0.0000   0.0000   0.3195
   7.250   1.2051   0.03015   0.02359  -0.1195  0.3366  0.2119  -2.6526   0.0000   0.0000   0.0000   0.3194
   7.260   1.2058   0.03018   0.02362  -0.1195  0.3365  0.2127  -2.6531   0.0000   0.0000   0.0000   0.3193
   7.270   1.2064   0.03021   0.02366  -0.1195  0.3365  0.2135  -2.6537   0.0000   0.0000   0.0000   0.3192
   7.280   1.2071   0.03024   0.02369  -0.1195  0.3365  0.2141  -2.6543   0.0000   0.0000   0.0000   0.3191
   7.290   1.2077   0.03028   0.02372  -0.1194  0.3365  0.2146  -2.6549   0.0000   0.0000   0.0000   0.3190
   7.300   1.2084   0.03031   0.02376  -0.1194  0.3365  0.2151  -2.6555   0.0000   0.0000   0.0000   0.3189
   7.310   1.2091   0.03034   0.02379  -0.1194  0.3365  0.2158  -2.6561   0.0000   0.0000   0.0000   0.3188
   7.320   1.2097   0.03037   0.02382  -0.1194  0.3364  0.2164  -2.6567   0.0000   0.0000   0.0000   0.3187
   7.330   1.2104   0.03040   0.02385  -0.1193  0.3364  0.2171  -2.6573   0.0000   0.0000   0.0000   0.3186
   7.340   1.2111   0.03043   0.02389  -0.1193  0.3364  0.2177  -2.6579   0.0000   0.0000   0.0000   0.3185
   7.350   1.2118   0.03045   0.02392  -0.1193  0.3364  0.2184  -2.6585   0.0000   0.0000   0.0000   0.3184
   7.360   1.2125   0.03048   0.02395  -0.1193  0.3364  0.2191  -2.6591   0.0000   0.0000   0.0000   0.3183
   7.370   1.2131   0.03051   0.02398  -0.1192  0.3364  0.2198  -2.6597   0.0000   0.0000   0.0000   0.3182
   7.380   1.2138   0.03054   0.02401  -0.1192  0.3363  0.2205  -2.6603   0.0000   0.0000   0.0000   0.3181
   7.390   1.2145   0.03057   0.02405  -0.1192  0.3363  0.2213  -2.6609   0.0000   0.0000   0.0000   0.3180
   7.400   1.2152   0.03060   0.02408  -0.1192  0.3363  0.2222  -2.6616   0.0000   0.0000   0.0000   0.3179
   7.410   1.2159   0.03063   0.02411  -0.1192  0.3363  0.2231  -2.6622   0.0000   0.0000   0.0000   0.3178
[...]
  10.160   1.3906   0.04076   0.03477  -0.1139  0.3302  0.3324  -2.8109   0.0000   0.0000   0.0000   0.2949
  10.170   1.3912   0.04080   0.03481  -0.1139  0.3301  0.3324  -2.8114   0.0000   0.0000   0.0000   0.2948
  10.180   1.3919   0.04084   0.03485  -0.1139  0.3301  0.3324  -2.8119   0.0000   0.0000   0.0000   0.2948
  10.190   1.3925   0.04088   0.03489  -0.1139  0.3301  0.3325  -2.8124   0.0000   0.0000   0.0000   0.2947
  10.200   1.3931   0.04092   0.03494  -0.1139  0.3301  0.3325  -2.8129   0.0000   0.0000   0.0000   0.2946
  10.210   1.3937   0.04096   0.03498  -0.1138  0.3301  0.3325  -2.8134   0.0000   0.0000   0.0000   0.2945
  10.220   1.3943   0.04100   0.03502  -0.1138  0.3300  0.3326  -2.8138   0.0000   0.0000   0.0000   0.2945
  10.230   1.3949   0.04104   0.03506  -0.1138  0.3300  0.3326  -2.8142   0.0000   0.0000   0.0000   0.2944
  10.240   1.3955   0.04109   0.03511  -0.1138  0.3300  0.3326  -2.8146   0.0000   0.0000   0.0000   0.2943
  10.250   1.3960   0.04113   0.03515  -0.1138  0.3300  0.3327  -2.8150   0.0000   0.0000   0.0000   0.2943
  10.260   1.3966   0.04118   0.03520  -0.1138  0.3300  0.3327  -2.8154   0.0000   0.0000   0.0000   0.2942
  10.270   1.3971   0.04123   0.03525  -0.1137  0.3299  0.3327  -2.8157   0.0000   0.0000   0.0000   0.2941
  10.280   1.3976   0.04128   0.03530  -0.1137  0.3299  0.3327  -2.8161   0.0000   0.0000   0.0000   0.2940
  10.290   1.3981   0.04133   0.03535  -0.1137  0.3299  0.3328  -2.8164   0.0000   0.0000   0.0000   0.2940
  10.300   1.3986   0.04138   0.03541  -0.1137  0.3298  0.3328  -2.8166   0.0000   0.0000   0.0000   0.2939
  10.310   1.3990   0.04143   0.03546  -0.1136  0.3298  0.3328  -2.8169   0.0000   0.0000   0.0000   0.2938
  10.320   1.3995   0.04148   0.03551  -0.1136  0.3298  0.3329  -2.8172   0.0000   0.0000   0.0000   0.2938
  10.330   1.4000   0.04153   0.03557  -0.1136  0.3298  0.3329  -2.8174   0.0000   0.0000   0.0000   0.2937
  10.340   1.4004   0.04159   0.03562  -0.1136  0.3297  0.3329  -2.8177   0.0000   0.0000   0.0000   0.2936
  10.350   1.4009   0.04164   0.03568  -0.1135  0.3297  0.3330  -2.8179   0.0000   0.0000   0.0000   0.2935
  10.360   1.4013   0.04169   0.03573  -0.1135  0.3297  0.3330  -2.8181   0.0000   0.0000   0.0000   0.2935
  10.370   1.4018   0.04175   0.03579  -0.1135  0.3296  0.3330  -2.8184   0.0000   0.0000   0.0000   0.2934
  10.380   1.4022   0.04180   0.03584  -0.1135  0.3296  0.3331  -2.8186   0.0000   0.0000   0.0000   0.2933
  10.390   1.4027   0.04185   0.03589  -0.1134  0.3295  0.3331  -2.8189   0.0000   0.0000   0.0000   0.2933
  10.400   1.4031   0.04190   0.03595  -0.1134  0.3295  0.3331  -2.8191   0.0000   0.0000   0.0000   0.2932
  10.410   1.4036   0.04196   0.03600  -0.1134  0.3295  0.3332  -2.8194   0.0000   0.0000   0.0000   0.2931
  10.420   1.4040   0.04201   0.03605  -0.1134  0.3294  0.3332  -2.8197   0.0000   0.0000   0.0000   0.2931
  10.430   1.4045   0.04206   0.03611  -0.1133  0.3294  0.3332  -2.8199   0.0000   0.0000   0.0000   0.2930
  10.440   1.4050   0.04211   0.03616  -0.1133  0.3293  0.3332  -2.8202   0.0000   0.0000   0.0000   0.2929
  10.450   1.4055   0.04216   0.03621  -0.1133  0.3293  0.3333  -2.8205   0.0000   0.0000   0.0000   0.2928
  10.460   1.4060   0.04221   0.03626  -0.1133  0.3293  0.3333  -2.8209   0.0000   0.0000   0.0000   0.2928
  10.470   1.4065   0.04226   0.03631  -0.1132  0.3292  0.3333  -2.8212   0.0000   0.0000   0.0000   0.2927
  10.480   1.4070   0.04231   0.03636  -0.1132  0.3292  0.3334  -2.8215   0.0000   0.0000   0.0000   0.2926
  10.490   1.4076   0.04235   0.03641  -0.1132  0.3291  0.3334  -2.8219   0.0000   0.0000   0.0000   0.2926
  10.500   1.4081   0.04240   0.03646  -0.1132  0.3291  0.3334  -2.8222   0.0000   0.0000   0.0000   0.2925
  10.510   1.4086   0.04245   0.03651  -0.1132  0.3290  0.3335  -2.8225   0.0000   0.0000   0.0000   0.2924
  10.520   1.4091   0.04250   0.03656  -0.1131  0.3290  0.3335  -2.8229   0.0000   0.0000   0.0000   0.2924
  10.530   1.4097   0.04254   0.03660  -0.1131  0.3289  0.3335  -2.8232   0.0000   0.0000   0.0000   0.2923
  10.540   1.4102   0.04259   0.03665  -0.1131  0.3289  0.3336  -2.8236   0.0000   0.0000   0.0000   0.2922
  10.550   1.4107   0.04264   0.03670  -0.1131  0.3288  0.3336  -2.8240   0.0000   0.0000   0.0000   0.2921
  10.560   1.4113   0.04269   0.03675  -0.1131  0.3288  0.3336  -2.8243   0.0000   0.0000   0.0000   0.2921
  10.570   1.4118   0.04273   0.03680  -0.1130  0.3287  0.3337  -2.8247   0.0000   0.0000   0.0000   0.2920
  10.580   1.4123   0.04278   0.03684  -0.1130  0.3287  0.3337  -2.8250   0.0000   0.0000   0.0000   0.2919
  10.590   1.4129   0.04283   0.03689  -0.1130  0.3286  0.3337  -2.8254   0.0000   0.0000   0.0000   0.2919
  10.600   1.4134   0.04287   0.03694  -0.1130  0.3286  0.3338  -2.8258   0.0000   0.0000   0.0000   0.2918
  10.610   1.4139   0.04292   0.03699  -0.1130  0.3285  0.3338  -2.8262   0.0000   0.0000   0.0000   0.2917
  10.620   1.4145   0.04297   0.03704  -0.1129  0.3285  0.3338  -2.8266   0.0000   0.0000   0.0000   0.2917
  10.630   1.4150   0.04301   0.03708  -0.1129  0.3284  0.3339  -2.8270   0.0000   0.0000   0.0000   0.2916
  10.640   1.4155   0.04306   0.03713  -0.1129  0.3284  0.3339  -2.8274   0.0000   0.0000   0.0000   0.2915
  10.650   1.4161   0.04311   0.03718  -0.1129  0.3283  0.3339  -2.8278   0.0000   0.0000   0.0000   0.2915
  10.660   1.4166   0.04315   0.03723  -0.1129  0.3283  0.3339  -2.8282   0.0000   0.0000   0.0000   0.2914
  10.670   1.4171   0.04320   0.03728  -0.1129  0.3282  0.3340  -2.8286   0.0000   0.0000   0.0000   0.2913
  10.680   1.4177   0.04325   0.03732  -0.1128  0.3281  0.3340  -2.8290   0.0000   0.0000   0.0000   0.2912
  10.690   1.4182   0.04330   0.03737  -0.1128  0.3281  0.3340  -2.8294   0.0000   0.0000   0.0000   0.2912
  10.700   1.4187   0.04334   0.03742  -0.1128  0.3280  0.3341  -2.8298   0.0000   0.0000   0.0000   0.2911
  10.710   1.4193   0.04339   0.03747  -0.1128  0.3280  0.3341  -2.8302   0.0000   0.0000   0.0000   0.2910
  10.720   1.4198   0.04344   0.03752  -0.1128  0.3279  0.3341  -2.8306   0.0000   0.0000   0.0000   0.2910
  10.730   1.4203   0.04349   0.03757  -0.1127  0.3278  0.3342  -2.8309   0.0000   0.0000   0.0000   0.2909
  10.740   1.4208   0.04353   0.03761  -0.1127  0.3278  0.3342  -2.8313   0.0000   0.0000   0.0000   0.2908
  10.750   1.4214   0.04358   0.03766  -0.1127  0.3277  0.3342  -2.8317   0.0000   0.0000   0.0000   0.2908
  10.760   1.4219   0.04363   0.03771  -0.1127  0.3277  0.3343  -2.8321   0.0000   0.0000   0.0000   0.2907
  10.770   1.4224   0.04368   0.03776  -0.1127  0.3276  0.3343  -2.8325   0.0000   0.0000   0.0000   0.2906
  10.780   1.4229   0.04372   0.03781  -0.1126  0.3275  0.3343  -2.8328   0.0000   0.0000   0.0000   0.2906
  10.790   1.4234   0.04377   0.03786  -0.1126  0.3275  0.3344  -2.8332   0.0000   0.0000   0.0000   0.2905
  10.800   1.4239   0.04382   0.03791  -0.1126  0.3274  0.3344  -2.8336   0.0000   0.0000   0.0000   0.2904
  10.810   1.4244   0.04387   0.03796  -0.1126  0.3273  0.3344  -2.8339   0.0000   0.0000   0.0000   0.2904
  10.820   1.4249   0.04392   0.03801  -0.1126  0.3273  0.3345  -2.8343   0.0000   0.0000   0.0000   0.2903
  10.830   1.4255   0.04397   0.03806  -0.1125  0.3272  0.3345  -2.8347   0.0000   0.0000   0.0000   0.2902
  10.840   1.4260   0.04402   0.03811  -0.1125  0.3271  0.3345  -2.8350   0.0000   0.0000   0.0000   0.2901
  10.850   1.4265   0.04407   0.03816  -0.1125  0.3271  0.3346  -2.8354   0.0000   0.0000   0.0000   0.2901
  10.860   1.4270   0.04412   0.03821  -0.1125  0.3270  0.3346  -2.8357   0.0000   0.0000   0.0000   0.2900
  10.870   1.4274   0.04417   0.03826  -0.1125  0.3269  0.3346  -2.8361   0.0000   0.0000   0.0000   0.2899
  10.880   1.4279   0.04422   0.03831  -0.1124  0.3269  0.3347  -2.8364   0.0000   0.0000   0.0000   0.2899
  10.890   1.4284   0.04427   0.03836  -0.1124  0.3268  0.3347  -2.8367   0.0000   0.0000   0.0000   0.2898
  10.900   1.4289   0.04432   0.03841  -0.1124  0.3268  0.3347  -2.8371   0.0000   0.0000   0.0000   0.2897
  10.910   1.4294   0.04437   0.03846  -0.1124  0.3267  0.3347  -2.8374   0.0000   0.0000   0.0000   0.2897
  10.920   1.4299   0.04442   0.03852  -0.1123  0.3266  0.3348  -2.8377   0.0000   0.0000   0.0000   0.2896
  10.930   1.4304   0.04447   0.03857  -0.1123  0.3266  0.3348  -2.8381   0.0000   0.0000   0.0000   0.2895
  10.940   1.4308   0.04452   0.03862  -0.1123  0.3265  0.3348  -2.8384   0.0000   0.0000   0.0000   0.2895
  10.950   1.4313   0.04457   0.03867  -0.1123  0.3264  0.3349  -2.8387   0.0000   0.0000   0.0000   0.2894
  10.960   1.4318   0.04462   0.03873  -0.1123  0.3264  0.3349  -2.8390   0.0000   0.0000   0.0000   0.2893
  10.970   1.4322   0.04468   0.03878  -0.1122  0.3263  0.3349  -2.8393   0.0000   0.0000   0.0000   0.2893
  10.980   1.4326   0.04473   0.03884  -0.1122  0.3262  0.3350  -2.8395   0.0000   0.0000   0.0000   0.2892
  10.990   1.4330   0.04479   0.03890  -0.1122  0.3262  0.3350  -2.8397   0.0000   0.0000   0.0000   0.2891
  11.000   1.4334   0.04485   0.03896  -0.1122  0.3261  0.3350  -2.8398   0.0000   0.0000   0.0000   0.2891
  11.010   1.4337   0.04492   0.03903  -0.1121  0.3261  0.3351  -2.8399   0.0000   0.0000   0.0000   0.2890
  11.020   1.4340   0.04498   0.03909  -0.1121  0.3260  0.3351  -2.8400   0.0000   0.0000   0.0000   0.2889
  11.030   1.4343   0.04505   0.03916  -0.1121  0.3259  0.3351  -2.8400   0.0000   0.0000   0.0000   0.2889
  11.040   1.4345   0.04512   0.03923  -0.1120  0.3259  0.3351  -2.8400   0.0000   0.0000   0.0000   0.2888
  11.050   1.4348   0.04519   0.03930  -0.1120  0.3258  0.3352  -2.8400   0.0000   0.0000   0.0000   0.2887
  11.060   1.4350   0.04526   0.03938  -0.1119  0.3257  0.3352  -2.8400   0.0000   0.0000   0.0000   0.2887
  11.070   1.4352   0.04533   0.03945  -0.1119  0.3257  0.3352  -2.8399   0.0000   0.0000   0.0000   0.2886
  11.080   1.4355   0.04541   0.03952  -0.1119  0.3256  0.3353  -2.8399   0.0000   0.0000   0.0000   0.2885
  11.090   1.4357   0.04548   0.03959  -0.1118  0.3255  0.3353  -2.8399   0.0000   0.0000   0.0000   0.2885
  11.100   1.4360   0.04555   0.03966  -0.1118  0.3255  0.3353  -2.8399   0.0000   0.0000   0.0000   0.2884
  11.110   1.4363   0.04561   0.03973  -0.1118  0.3254  0.3353  -2.8399   0.0000   0.0000   0.0000   0.2883
  11.120   1.4366   0.04568   0.03980  -0.1117  0.3254  0.3354  -2.8400   0.0000   0.0000   0.0000   0.2883
  11.130   1.4369   0.04575   0.03987  -0.1117  0.3253  0.3354  -2.8401   0.0000   0.0000   0.0000   0.2882
  11.140   1.4372   0.04581   0.03993  -0.1117  0.3252  0.3354  -2.8401   0.0000   0.0000   0.0000   0.2881
  11.150   1.4375   0.04587   0.04000  -0.1116  0.3252  0.3355  -2.8402   0.0000   0.0000   0.0000   0.2881
  11.160   1.4379   0.04594   0.04006  -0.1116  0.3251  0.3355  -2.8404   0.0000   0.0000   0.0000   0.2880
  11.170   1.4382   0.04600   0.04013  -0.1116  0.3251  0.3355  -2.8405   0.0000   0.0000   0.0000   0.2879
  11.180   1.4386   0.04606   0.04019  -0.1116  0.3250  0.3356  -2.8406   0.0000   0.0000   0.0000   0.2879
  11.190   1.4390   0.04612   0.04025  -0.1115  0.3250  0.3356  -2.8408   0.0000   0.0000   0.0000   0.2878
  11.200   1.4394   0.04618   0.04031  -0.1115  0.3249  0.3356  -2.8410   0.0000   0.0000   0.0000   0.2877
  11.210   1.4398   0.04624   0.04037  -0.1115  0.3249  0.3356  -2.8411   0.0000   0.0000   0.0000   0.2877
  11.220   1.4402   0.04630   0.04043  -0.1115  0.3248  0.3357  -2.8413   0.0000   0.0000   0.0000   0.2876
  11.230   1.4406   0.04636   0.04049  -0.1114  0.3248  0.3357  -2.8415   0.0000   0.0000   0.0000   0.2875
  11.240   1.4410   0.04642   0.04055  -0.1114  0.3247  0.3357  -2.8417   0.0000   0.0000   0.0000   0.2875
  11.250   1.4414   0.04647   0.04061  -0.1114  0.3247  0.3358  -2.8419   0.0000   0.0000   0.0000   0.2874
  11.260   1.4418   0.04653   0.04067  -0.1114  0.3246  0.3358  -2.8421   0.0000   0.0000   0.0000   0.2874
  11.270   1.4422   0.04659   0.04073  -0.1113  0.3246  0.3358  -2.8423   0.0000   0.0000   0.0000   0.2873
  11.280   1.4425   0.04665   0.04079  -0.1113  0.3245  0.3359  -2.8424   0.0000   0.0000   0.0000   0.2872
  11.290   1.4429   0.04671   0.04085  -0.1113  0.3244  0.3359  -2.8426   0.0000   0.0000   0.0000   0.2872
  11.300   1.4433   0.04677   0.04091  -0.1113  0.3244  0.3359  -2.8427   0.0000   0.0000   0.0000   0.2871
  11.310   1.4436   0.04684   0.04098  -0.1112  0.3243  0.3360  -2.8429   0.0000   0.0000   0.0000   0.2870
  11.320   1.4440   0.04690   0.04104  -0.1112  0.3242  0.3360  -2.8430   0.0000   0.0000   0.0000   0.2870
  11.330   1.4443   0.04696   0.04110  -0.1112  0.3242  0.3360  -2.8431   0.0000   0.0000   0.0000   0.2869
  11.340   1.4447   0.04702   0.04116  -0.1111  0.3241  0.3360  -2.8433   0.0000   0.0000   0.0000   0.2868
  11.350   1.4453   0.04707   0.04121  -0.1111  0.3240  0.3361  -2.8437   0.0000   0.0000   0.0000   0.2868
  11.360   1.4458   0.04712   0.04126  -0.1111  0.3240  0.3361  -2.8440   0.0000   0.0000   0.0000   0.2867
  11.370   1.4463   0.04717   0.04131  -0.1111  0.3239  0.3361  -2.8444   0.0000   0.0000   0.0000   0.2866
  11.380   1.4468   0.04722   0.04136  -0.1111  0.3238  0.3362  -2.8447   0.0000   0.0000   0.0000   0.2866
  11.390   1.4473   0.04727   0.04142  -0.1111  0.3237  0.3362  -2.8450   0.0000   0.0000   0.0000   0.2865
  11.400   1.4478   0.04732   0.04147  -0.1110  0.3237  0.3362  -2.8453   0.0000   0.0000   0.0000   0.2864
  11.410   1.4483   0.04737   0.04152  -0.1110  0.3236  0.3363  -2.8456   0.0000   0.0000   0.0000   0.2864
  11.420   1.4487   0.04742   0.04157  -0.1110  0.3235  0.3363  -2.8459   0.0000   0.0000   0.0000   0.2863
  11.430   1.4492   0.04747   0.04163  -0.1110  0.3234  0.3363  -2.8462   0.0000   0.0000   0.0000   0.2862
  11.440   1.4497   0.04753   0.04168  -0.1110  0.3233  0.3364  -2.8465   0.0000   0.0000   0.0000   0.2862
  11.450   1.4502   0.04758   0.04173  -0.1110  0.3232  0.3364  -2.8468   0.0000   0.0000   0.0000   0.2861
  11.460   1.4506   0.04763   0.04179  -0.1109  0.3231  0.3364  -2.8471   0.0000   0.0000   0.0000   0.2861
  11.470   1.4511   0.04769   0.04184  -0.1109  0.3230  0.3364  -2.8474   0.0000   0.0000   0.0000   0.2860
  11.480   1.4515   0.04774   0.04190  -0.1109  0.3229  0.3365  -2.8476   0.0000   0.0000   0.0000   0.2859
  11.490   1.4520   0.04780   0.04196  -0.1109  0.3228  0.3365  -2.8479   0.0000   0.0000   0.0000   0.2859
  11.500   1.4524   0.04785   0.04201  -0.1108  0.3227  0.3365  -2.8481   0.0000   0.0000   0.0000   0.2858
  11.510   1.4528   0.04791   0.04207  -0.1108  0.3226  0.3366  -2.8483   0.0000   0.0000   0.0000   0.2857
  11.520   1.4532   0.04797   0.04213  -0.1108  0.3224  0.3366  -2.8485   0.0000   0.0000   0.0000   0.2857
  11.530   1.4536   0.04803   0.04219  -0.1108  0.3223  0.3366  -2.8487   0.0000   0.0000   0.0000   0.2856
  11.540   1.4540   0.04809   0.04225  -0.1108  0.3222  0.3367  -2.8489   0.0000   0.0000   0.0000   0.2855
  11.550   1.4544   0.04815   0.04231  -0.1107  0.3220  0.3367  -2.8490   0.0000   0.0000   0.0000   0.2855
  11.560   1.4547   0.04821   0.04237  -0.1107  0.3219  0.3367  -2.8492   0.0000   0.0000   0.0000   0.2854
  11.570   1.4551   0.04827   0.04244  -0.1107  0.3217  0.3367  -2.8493   0.0000   0.0000   0.0000   0.2854
  11.580   1.4554   0.04834   0.04250  -0.1106  0.3215  0.3368  -2.8494   0.0000   0.0000   0.0000   0.2853
  11.590   1.4557   0.04840   0.04257  -0.1106  0.3214  0.3368  -2.8495   0.0000   0.0000   0.0000   0.2852
  11.600   1.4560   0.04847   0.04264  -0.1106  0.3212  0.3368  -2.8495   0.0000   0.0000   0.0000   0.2852
  11.610   1.4562   0.04854   0.04271  -0.1105  0.3210  0.3369  -2.8495   0.0000   0.0000   0.0000   0.2851
  11.620   1.4564   0.04862   0.04279  -0.1105  0.3208  0.3369  -2.8493   0.0000   0.0000   0.0000   0.2850
  11.630   1.4564   0.04870   0.04287  -0.1105  0.3206  0.3369  -2.8491   0.0000   0.0000   0.0000   0.2850
  11.640   1.4565   0.04879   0.04296  -0.1104  0.3203  0.3369  -2.8488   0.0000   0.0000   0.0000   0.2849
  11.650   1.4564   0.04889   0.04306  -0.1104  0.3201  0.3370  -2.8483   0.0000   0.0000   0.0000   0.2848
  11.660   1.4563   0.04899   0.04316  -0.1103  0.3199  0.3370  -2.8478   0.0000   0.0000   0.0000   0.2848
  11.670   1.4561   0.04909   0.04327  -0.1103  0.3196  0.3370  -2.8472   0.0000   0.0000   0.0000   0.2847
  11.680   1.4559   0.04920   0.04338  -0.1102  0.3193  0.3370  -2.8465   0.0000   0.0000   0.0000   0.2847
  11.690   1.4556   0.04932   0.04349  -0.1101  0.3190  0.3371  -2.8457   0.0000   0.0000   0.0000   0.2846
  11.700   1.4553   0.04943   0.04361  -0.1101  0.3187  0.3371  -2.8450   0.0000   0.0000   0.0000   0.2845
  11.710   1.4550   0.04954   0.04372  -0.1100  0.3184  0.3371  -2.8443   0.0000   0.0000   0.0000   0.2845
  11.720   1.4548   0.04966   0.04383  -0.1099  0.3181  0.3371  -2.8436   0.0000   0.0000   0.0000   0.2844
  11.730   1.4545   0.04977   0.04395  -0.1099  0.3178  0.3371  -2.8428   0.0000   0.0000   0.0000   0.2843
  11.740   1.4542   0.04988   0.04406  -0.1098  0.3175  0.3372  -2.8421   0.0000   0.0000   0.0000   0.2843
  11.750   1.4539   0.05000   0.04417  -0.1097  0.3172  0.3372  -2.8414   0.0000   0.0000   0.0000   0.2842
  11.760   1.4536   0.05011   0.04429  -0.1097  0.3169  0.3372  -2.8406   0.0000   0.0000   0.0000   0.2842
  11.770   1.4533   0.05023   0.04440  -0.1096  0.3166  0.3372  -2.8398   0.0000   0.0000   0.0000   0.2841
  11.780   1.4529   0.05035   0.04452  -0.1095  0.3162  0.3373  -2.8390   0.0000   0.0000   0.0000   0.2840
  11.790   1.4525   0.05047   0.04464  -0.1095  0.3159  0.3373  -2.8381   0.0000   0.0000   0.0000   0.2840
  11.800   1.4521   0.05059   0.04476  -0.1094  0.3156  0.3373  -2.8372   0.0000   0.0000   0.0000   0.2839
  11.810   1.4517   0.05072   0.04489  -0.1093  0.3153  0.3373  -2.8363   0.0000   0.0000   0.0000   0.2838
  11.820   1.4512   0.05084   0.04502  -0.1092  0.3149  0.3373  -2.8353   0.0000   0.0000   0.0000   0.2838
  11.830   1.4506   0.05098   0.04515  -0.1092  0.3146  0.3374  -2.8342   0.0000   0.0000   0.0000   0.2837
  11.840   1.4500   0.05111   0.04529  -0.1091  0.3143  0.3374  -2.8330   0.0000   0.0000   0.0000   0.2837
  11.850   1.4501   0.05120   0.04538  -0.1090  0.3140  0.3374  -2.8327   0.0000   0.0000   0.0000   0.2836
  11.860   1.4501   0.05129   0.04546  -0.1090  0.3138  0.3374  -2.8324   0.0000   0.0000   0.0000   0.2835
  11.870   1.4501   0.05138   0.04555  -0.1089  0.3135  0.3375  -2.8321   0.0000   0.0000   0.0000   0.2835
  11.880   1.4501   0.05147   0.04564  -0.1089  0.3132  0.3375  -2.8317   0.0000   0.0000   0.0000   0.2834
  11.890   1.4501   0.05156   0.04574  -0.1088  0.3129  0.3375  -2.8313   0.0000   0.0000   0.0000   0.2833
  11.900   1.4500   0.05166   0.04583  -0.1088  0.3126  0.3375  -2.8309   0.0000   0.0000   0.0000   0.2833
  11.910   1.4499   0.05175   0.04593  -0.1087  0.3123  0.3375  -2.8305   0.0000   0.0000   0.0000   0.2832
  11.920   1.4499   0.05185   0.04602  -0.1087  0.3120  0.3376  -2.8300   0.0000   0.0000   0.0000   0.2832
  11.930   1.4498   0.05195   0.04612  -0.1086  0.3117  0.3376  -2.8295   0.0000   0.0000   0.0000   0.2831
  11.940   1.4496   0.05205   0.04622  -0.1086  0.3113  0.3376  -2.8290   0.0000   0.0000   0.0000   0.2830
  11.950   1.4495   0.05215   0.04632  -0.1085  0.3110  0.3376  -2.8285   0.0000   0.0000   0.0000   0.2830
  11.960   1.4494   0.05225   0.04643  -0.1085  0.3107  0.3377  -2.8280   0.0000   0.0000   0.0000   0.2829
  11.970   1.4491   0.05237   0.04654  -0.1084  0.3103  0.3377  -2.8272   0.0000   0.0000   0.0000   0.2828
  11.980   1.4486   0.05250   0.04667  -0.1083  0.3100  0.3377  -2.8262   0.0000   0.0000   0.0000   0.2828
  11.990   1.4480   0.05265   0.04682  -0.1083  0.3096  0.3377  -2.8249   0.0000   0.0000   0.0000   0.2827
  12.000   1.4472   0.05281   0.04698  -0.1082  0.3092  0.3377  -2.8235   0.0000   0.0000   0.0000   0.2827


