xflr5 v6.61

 Calculated polar for: Airfoil-RevE-HC

 1 1 Reynolds number fixed          Mach number fixed         

 xtrf =   1.000 (top)        1.000 (bottom)
 Mach =   0.450     Re =     4.400 e 6     Ncrit =   0.500

  alpha     CL        CD       CDp       Cm    Top Xtr Bot Xtr   Cpmin    Chinge    XCp    
 ------- -------- --------- --------- -------- ------- ------- -------- --------- ---------
 -12.000   0.1596   0.04538   0.04049  -0.2421  0.3590  0.0143  -5.9250   0.0000   0.0000   0.0000   2.0207
 -11.990   0.1590   0.04528   0.04039  -0.2421  0.3589  0.0143  -5.9256   0.0000   0.0000   0.0000   2.0264
 -11.980   0.1585   0.04517   0.04028  -0.2420  0.3589  0.0143  -5.9262   0.0000   0.0000   0.0000   2.0321
 -11.970   0.1580   0.04507   0.04018  -0.2420  0.3589  0.0143  -5.9269   0.0000   0.0000   0.0000   2.0380
 -11.960   0.1574   0.04496   0.04007  -0.2420  0.3589  0.0143  -5.9276   0.0000   0.0000   0.0000   2.0440
 -11.950   0.1568   0.04486   0.03996  -0.2420  0.3589  0.0143  -5.9284   0.0000   0.0000   0.0000   2.0502
 -11.940   0.1563   0.04475   0.03986  -0.2420  0.3589  0.0143  -5.9293   0.0000   0.0000   0.0000   2.0566
 -11.930   0.1556   0.04464   0.03975  -0.2420  0.3589  0.0143  -5.9302   0.0000   0.0000   0.0000   2.0634
 -11.920   0.1550   0.04453   0.03964  -0.2420  0.3589  0.0143  -5.9314   0.0000   0.0000   0.0000   2.0704
 -11.910   0.1544   0.04442   0.03952  -0.2420  0.3588  0.0143  -5.9327   0.0000   0.0000   0.0000   2.0780
 -11.900   0.1537   0.04430   0.03941  -0.2420  0.3588  0.0143  -5.9342   0.0000   0.0000   0.0000   2.0860
 -11.890   0.1529   0.04419   0.03929  -0.2420  0.3588  0.0143  -5.9360   0.0000   0.0000   0.0000   2.0947
 -11.880   0.1521   0.04406   0.03917  -0.2420  0.3588  0.0143  -5.9381   0.0000   0.0000   0.0000   2.1041
 -11.870   0.1513   0.04394   0.03904  -0.2419  0.3588  0.0143  -5.9402   0.0000   0.0000   0.0000   2.1136
 -11.860   0.1505   0.04382   0.03892  -0.2419  0.3588  0.0143  -5.9422   0.0000   0.0000   0.0000   2.1231
 -11.850   0.1497   0.04370   0.03880  -0.2419  0.3588  0.0143  -5.9442   0.0000   0.0000   0.0000   2.1326
 -11.840   0.1490   0.04359   0.03869  -0.2419  0.3588  0.0143  -5.9457   0.0000   0.0000   0.0000   2.1412
 -11.830   0.1484   0.04349   0.03858  -0.2419  0.3587  0.0143  -5.9465   0.0000   0.0000   0.0000   2.1486
 -11.820   0.1479   0.04339   0.03848  -0.2419  0.3587  0.0143  -5.9469   0.0000   0.0000   0.0000   2.1550
 -11.810   0.1474   0.04329   0.03838  -0.2419  0.3587  0.0143  -5.9472   0.0000   0.0000   0.0000   2.1614
 -11.800   0.1468   0.04319   0.03828  -0.2418  0.3587  0.0143  -5.9476   0.0000   0.0000   0.0000   2.1679
 -11.790   0.1463   0.04309   0.03818  -0.2418  0.3587  0.0143  -5.9480   0.0000   0.0000   0.0000   2.1746
 -11.780   0.1457   0.04298   0.03808  -0.2418  0.3587  0.0143  -5.9485   0.0000   0.0000   0.0000   2.1815
 -11.770   0.1452   0.04288   0.03798  -0.2418  0.3587  0.0143  -5.9490   0.0000   0.0000   0.0000   2.1886
 -11.760   0.1446   0.04278   0.03787  -0.2418  0.3587  0.0143  -5.9496   0.0000   0.0000   0.0000   2.1960
 -11.750   0.1440   0.04268   0.03777  -0.2417  0.3586  0.0143  -5.9503   0.0000   0.0000   0.0000   2.2036
 -11.740   0.1434   0.04257   0.03766  -0.2417  0.3586  0.0143  -5.9511   0.0000   0.0000   0.0000   2.2117
 -11.730   0.1427   0.04247   0.03755  -0.2417  0.3586  0.0143  -5.9521   0.0000   0.0000   0.0000   2.2203
 -11.720   0.1420   0.04236   0.03745  -0.2417  0.3586  0.0143  -5.9534   0.0000   0.0000   0.0000   2.2294
 -11.710   0.1413   0.04225   0.03733  -0.2417  0.3586  0.0143  -5.9548   0.0000   0.0000   0.0000   2.2393
 -11.700   0.1405   0.04213   0.03722  -0.2416  0.3586  0.0143  -5.9566   0.0000   0.0000   0.0000   2.2500
 -11.690   0.1397   0.04201   0.03710  -0.2416  0.3586  0.0143  -5.9586   0.0000   0.0000   0.0000   2.2616
 -11.680   0.1389   0.04190   0.03698  -0.2416  0.3585  0.0143  -5.9605   0.0000   0.0000   0.0000   2.2731
 -11.670   0.1381   0.04178   0.03686  -0.2416  0.3585  0.0143  -5.9624   0.0000   0.0000   0.0000   2.2846
 -11.660   0.1373   0.04167   0.03675  -0.2416  0.3585  0.0143  -5.9640   0.0000   0.0000   0.0000   2.2958
 -11.650   0.1366   0.04156   0.03664  -0.2415  0.3585  0.0143  -5.9652   0.0000   0.0000   0.0000   2.3058
 -11.640   0.1360   0.04146   0.03654  -0.2415  0.3585  0.0143  -5.9657   0.0000   0.0000   0.0000   2.3142
 -11.630   0.1355   0.04137   0.03645  -0.2415  0.3585  0.0143  -5.9657   0.0000   0.0000   0.0000   2.3216
 -11.620   0.1349   0.04128   0.03635  -0.2415  0.3585  0.0143  -5.9658   0.0000   0.0000   0.0000   2.3290
 -11.610   0.1344   0.04118   0.03626  -0.2414  0.3584  0.0143  -5.9658   0.0000   0.0000   0.0000   2.3366
 -11.600   0.1339   0.04109   0.03617  -0.2414  0.3584  0.0143  -5.9659   0.0000   0.0000   0.0000   2.3442
 -11.590   0.1334   0.04099   0.03607  -0.2414  0.3584  0.0143  -5.9660   0.0000   0.0000   0.0000   2.3520
 -11.580   0.1328   0.04090   0.03598  -0.2413  0.3584  0.0143  -5.9661   0.0000   0.0000   0.0000   2.3601
 -11.570   0.1323   0.04081   0.03588  -0.2413  0.3584  0.0143  -5.9663   0.0000   0.0000   0.0000   2.3683
 -11.560   0.1317   0.04071   0.03578  -0.2413  0.3584  0.0143  -5.9666   0.0000   0.0000   0.0000   2.3768
 -11.550   0.1311   0.04061   0.03569  -0.2412  0.3584  0.0143  -5.9669   0.0000   0.0000   0.0000   2.3856
 -11.540   0.1305   0.04052   0.03559  -0.2412  0.3583  0.0143  -5.9673   0.0000   0.0000   0.0000   2.3949
 -11.530   0.1299   0.04042   0.03549  -0.2412  0.3583  0.0143  -5.9679   0.0000   0.0000   0.0000   2.4046
 -11.520   0.1293   0.04032   0.03539  -0.2411  0.3583  0.0143  -5.9686   0.0000   0.0000   0.0000   2.4149
 -11.510   0.1286   0.04022   0.03529  -0.2411  0.3583  0.0143  -5.9695   0.0000   0.0000   0.0000   2.4259
 -11.500   0.1279   0.04011   0.03518  -0.2411  0.3583  0.0143  -5.9706   0.0000   0.0000   0.0000   2.4378
 -11.490   0.1271   0.04000   0.03507  -0.2410  0.3583  0.0143  -5.9720   0.0000   0.0000   0.0000   2.4506
 -11.480   0.1262   0.03989   0.03496  -0.2410  0.3583  0.0143  -5.9739   0.0000   0.0000   0.0000   2.4651
 -11.470   0.1253   0.03978   0.03485  -0.2410  0.3582  0.0143  -5.9760   0.0000   0.0000   0.0000   2.4806
 -11.460   0.1244   0.03966   0.03473  -0.2409  0.3582  0.0143  -5.9780   0.0000   0.0000   0.0000   2.4959
 -11.450   0.1235   0.03955   0.03462  -0.2409  0.3582  0.0143  -5.9798   0.0000   0.0000   0.0000   2.5113
 -11.440   0.1227   0.03945   0.03451  -0.2409  0.3582  0.0143  -5.9813   0.0000   0.0000   0.0000   2.5255
 -11.430   0.1220   0.03935   0.03441  -0.2408  0.3582  0.0143  -5.9822   0.0000   0.0000   0.0000   2.5380
 -11.420   0.1214   0.03925   0.03432  -0.2408  0.3582  0.0143  -5.9824   0.0000   0.0000   0.0000   2.5484
 -11.410   0.1209   0.03917   0.03423  -0.2407  0.3582  0.0143  -5.9822   0.0000   0.0000   0.0000   2.5575
 -11.400   0.1204   0.03908   0.03414  -0.2407  0.3581  0.0143  -5.9819   0.0000   0.0000   0.0000   2.5666
 -11.390   0.1199   0.03899   0.03405  -0.2407  0.3581  0.0143  -5.9817   0.0000   0.0000   0.0000   2.5759
 -11.380   0.1194   0.03890   0.03396  -0.2406  0.3581  0.0143  -5.9814   0.0000   0.0000   0.0000   2.5853
 -11.370   0.1189   0.03882   0.03388  -0.2406  0.3581  0.0143  -5.9812   0.0000   0.0000   0.0000   2.5948
 -11.360   0.1183   0.03873   0.03379  -0.2405  0.3581  0.0143  -5.9810   0.0000   0.0000   0.0000   2.6045
 -11.350   0.1178   0.03864   0.03370  -0.2405  0.3581  0.0143  -5.9808   0.0000   0.0000   0.0000   2.6144
 -11.340   0.1172   0.03855   0.03361  -0.2404  0.3580  0.0143  -5.9807   0.0000   0.0000   0.0000   2.6248
 -11.330   0.1167   0.03847   0.03352  -0.2404  0.3580  0.0143  -5.9807   0.0000   0.0000   0.0000   2.6357
 -11.320   0.1161   0.03838   0.03343  -0.2403  0.3580  0.0143  -5.9807   0.0000   0.0000   0.0000   2.6468
 -11.310   0.1155   0.03829   0.03334  -0.2403  0.3580  0.0143  -5.9808   0.0000   0.0000   0.0000   2.6584
 -11.300   0.1149   0.03820   0.03325  -0.2402  0.3580  0.0143  -5.9810   0.0000   0.0000   0.0000   2.6705
 -11.290   0.1143   0.03811   0.03316  -0.2402  0.3580  0.0143  -5.9813   0.0000   0.0000   0.0000   2.6831
 -11.280   0.1136   0.03801   0.03307  -0.2401  0.3579  0.0143  -5.9818   0.0000   0.0000   0.0000   2.6964
 -11.270   0.1129   0.03792   0.03297  -0.2401  0.3579  0.0143  -5.9824   0.0000   0.0000   0.0000   2.7106
 -11.260   0.1122   0.03782   0.03288  -0.2400  0.3579  0.0143  -5.9831   0.0000   0.0000   0.0000   2.7257
 -11.250   0.1114   0.03773   0.03278  -0.2400  0.3579  0.0143  -5.9841   0.0000   0.0000   0.0000   2.7420
 -11.240   0.1106   0.03762   0.03268  -0.2399  0.3579  0.0143  -5.9854   0.0000   0.0000   0.0000   2.7596
 -11.230   0.1097   0.03752   0.03257  -0.2399  0.3579  0.0143  -5.9870   0.0000   0.0000   0.0000   2.7791
 -11.220   0.1087   0.03741   0.03246  -0.2398  0.3579  0.0143  -5.9891   0.0000   0.0000   0.0000   2.8006
 -11.210   0.1078   0.03730   0.03235  -0.2398  0.3579  0.0143  -5.9911   0.0000   0.0000   0.0000   2.8226
 -11.200   0.1068   0.03720   0.03225  -0.2397  0.3578  0.0143  -5.9931   0.0000   0.0000   0.0000   2.8448
 -11.190   0.1059   0.03709   0.03214  -0.2397  0.3578  0.0143  -5.9948   0.0000   0.0000   0.0000   2.8663
 -11.180   0.1051   0.03700   0.03204  -0.2396  0.3578  0.0143  -5.9960   0.0000   0.0000   0.0000   2.8859
 -11.170   0.1044   0.03690   0.03195  -0.2395  0.3578  0.0143  -5.9965   0.0000   0.0000   0.0000   2.9028
 -11.160   0.1038   0.03682   0.03187  -0.2395  0.3578  0.0143  -5.9964   0.0000   0.0000   0.0000   2.9172
 -11.150   0.1032   0.03674   0.03178  -0.2394  0.3578  0.0143  -5.9962   0.0000   0.0000   0.0000   2.9309
 -11.140   0.1026   0.03666   0.03170  -0.2394  0.3578  0.0143  -5.9959   0.0000   0.0000   0.0000   2.9449
 -11.130   0.1021   0.03658   0.03162  -0.2393  0.3578  0.0143  -5.9957   0.0000   0.0000   0.0000   2.9590
 -11.120   0.1015   0.03649   0.03154  -0.2392  0.3578  0.0143  -5.9954   0.0000   0.0000   0.0000   2.9734
 -11.110   0.1009   0.03641   0.03146  -0.2392  0.3577  0.0143  -5.9952   0.0000   0.0000   0.0000   2.9881
 -11.100   0.1003   0.03633   0.03137  -0.2391  0.3577  0.0143  -5.9950   0.0000   0.0000   0.0000   3.0032
 -11.090   0.0997   0.03625   0.03129  -0.2390  0.3577  0.0143  -5.9949   0.0000   0.0000   0.0000   3.0188
 -11.080   0.0991   0.03617   0.03121  -0.2390  0.3577  0.0143  -5.9948   0.0000   0.0000   0.0000   3.0349
 -11.070   0.0985   0.03609   0.03113  -0.2389  0.3577  0.0143  -5.9947   0.0000   0.0000   0.0000   3.0514
 -11.060   0.0978   0.03600   0.03104  -0.2388  0.3577  0.0143  -5.9947   0.0000   0.0000   0.0000   3.0684
 -11.050   0.0972   0.03592   0.03096  -0.2387  0.3577  0.0143  -5.9947   0.0000   0.0000   0.0000   3.0862
 -11.040   0.0965   0.03584   0.03088  -0.2387  0.3577  0.0143  -5.9949   0.0000   0.0000   0.0000   3.1048
 -11.030   0.0958   0.03576   0.03079  -0.2386  0.3577  0.0143  -5.9951   0.0000   0.0000   0.0000   3.1241
 -11.020   0.0951   0.03567   0.03071  -0.2385  0.3576  0.0143  -5.9955   0.0000   0.0000   0.0000   3.1445
 -11.010   0.0944   0.03559   0.03062  -0.2385  0.3576  0.0144  -5.9960   0.0000   0.0000   0.0000   3.1660
 -11.000   0.0936   0.03550   0.03054  -0.2384  0.3576  0.0144  -5.9966   0.0000   0.0000   0.0000   3.1890
 -10.990   0.0928   0.03541   0.03045  -0.2383  0.3576  0.0144  -5.9975   0.0000   0.0000   0.0000   3.2136
 -10.980   0.0919   0.03532   0.03036  -0.2382  0.3576  0.0144  -5.9985   0.0000   0.0000   0.0000   3.2401
 -10.970   0.0910   0.03523   0.03026  -0.2381  0.3576  0.0144  -5.9999   0.0000   0.0000   0.0000   3.2687
 -10.960   0.0900   0.03513   0.03017  -0.2381  0.3576  0.0144  -6.0015   0.0000   0.0000   0.0000   3.2997
 -10.950   0.0890   0.03504   0.03007  -0.2380  0.3576  0.0144  -6.0034   0.0000   0.0000   0.0000   3.3336
 -10.940   0.0879   0.03493   0.02997  -0.2379  0.3576  0.0144  -6.0056   0.0000   0.0000   0.0000   3.3705
 -10.930   0.0868   0.03483   0.02987  -0.2378  0.3576  0.0144  -6.0079   0.0000   0.0000   0.0000   3.4084
 -10.920   0.0857   0.03473   0.02977  -0.2377  0.3575  0.0144  -6.0101   0.0000   0.0000   0.0000   3.4470
 -10.910   0.0847   0.03464   0.02967  -0.2377  0.3575  0.0144  -6.0120   0.0000   0.0000   0.0000   3.4851
 -10.900   0.0837   0.03455   0.02958  -0.2376  0.3575  0.0144  -6.0135   0.0000   0.0000   0.0000   3.5207
 -10.890   0.0829   0.03446   0.02949  -0.2375  0.3575  0.0144  -6.0144   0.0000   0.0000   0.0000   3.5526
 -10.880   0.0821   0.03438   0.02941  -0.2374  0.3575  0.0144  -6.0146   0.0000   0.0000   0.0000   3.5808
 -10.870   0.0814   0.03431   0.02934  -0.2373  0.3575  0.0144  -6.0147   0.0000   0.0000   0.0000   3.6076
 -10.860   0.0807   0.03423   0.02926  -0.2372  0.3575  0.0144  -6.0147   0.0000   0.0000   0.0000   3.6351
 -10.850   0.0800   0.03415   0.02918  -0.2371  0.3575  0.0144  -6.0147   0.0000   0.0000   0.0000   3.6631
 -10.840   0.0793   0.03408   0.02911  -0.2370  0.3575  0.0144  -6.0148   0.0000   0.0000   0.0000   3.6919
 -10.830   0.0786   0.03400   0.02903  -0.2369  0.3575  0.0144  -6.0148   0.0000   0.0000   0.0000   3.7215
 -10.820   0.0779   0.03393   0.02896  -0.2368  0.3574  0.0144  -6.0149   0.0000   0.0000   0.0000   3.7519
 -10.810   0.0772   0.03385   0.02888  -0.2367  0.3574  0.0144  -6.0150   0.0000   0.0000   0.0000   3.7832
 -10.800   0.0764   0.03377   0.02880  -0.2366  0.3574  0.0144  -6.0152   0.0000   0.0000   0.0000   3.8156
 -10.790   0.0757   0.03370   0.02873  -0.2365  0.3574  0.0144  -6.0154   0.0000   0.0000   0.0000   3.8491
 -10.780   0.0749   0.03362   0.02865  -0.2364  0.3574  0.0144  -6.0157   0.0000   0.0000   0.0000   3.8840
 -10.770   0.0741   0.03354   0.02857  -0.2363  0.3574  0.0144  -6.0160   0.0000   0.0000   0.0000   3.9202
 -10.760   0.0733   0.03347   0.02849  -0.2362  0.3574  0.0144  -6.0164   0.0000   0.0000   0.0000   3.9579
 -10.750   0.0725   0.03339   0.02841  -0.2361  0.3574  0.0144  -6.0169   0.0000   0.0000   0.0000   3.9974
 -10.740   0.0717   0.03331   0.02833  -0.2360  0.3574  0.0144  -6.0175   0.0000   0.0000   0.0000   4.0389
 -10.730   0.0708   0.03323   0.02825  -0.2359  0.3573  0.0144  -6.0182   0.0000   0.0000   0.0000   4.0828
 -10.720   0.0699   0.03315   0.02817  -0.2358  0.3573  0.0144  -6.0190   0.0000   0.0000   0.0000   4.1294
 -10.710   0.0690   0.03306   0.02809  -0.2357  0.3573  0.0144  -6.0200   0.0000   0.0000   0.0000   4.1791
 -10.700   0.0681   0.03298   0.02800  -0.2356  0.3573  0.0144  -6.0212   0.0000   0.0000   0.0000   4.2324
 -10.690   0.0671   0.03289   0.02792  -0.2355  0.3573  0.0144  -6.0226   0.0000   0.0000   0.0000   4.2900
 -10.680   0.0660   0.03280   0.02783  -0.2354  0.3573  0.0144  -6.0243   0.0000   0.0000   0.0000   4.3527
 -10.670   0.0649   0.03271   0.02774  -0.2353  0.3573  0.0144  -6.0263   0.0000   0.0000   0.0000   4.4212
 -10.660   0.0637   0.03262   0.02764  -0.2352  0.3573  0.0144  -6.0286   0.0000   0.0000   0.0000   4.4962
 -10.650   0.0625   0.03253   0.02755  -0.2351  0.3573  0.0144  -6.0309   0.0000   0.0000   0.0000   4.5753
 -10.640   0.0613   0.03243   0.02746  -0.2349  0.3573  0.0144  -6.0332   0.0000   0.0000   0.0000   4.6569
 -10.630   0.0601   0.03234   0.02736  -0.2348  0.3572  0.0144  -6.0354   0.0000   0.0000   0.0000   4.7403
 -10.620   0.0590   0.03225   0.02728  -0.2347  0.3572  0.0144  -6.0372   0.0000   0.0000   0.0000   4.8219
 -10.610   0.0580   0.03217   0.02719  -0.2346  0.3572  0.0144  -6.0385   0.0000   0.0000   0.0000   4.8989
 -10.600   0.0571   0.03209   0.02712  -0.2345  0.3572  0.0144  -6.0393   0.0000   0.0000   0.0000   4.9704
 -10.590   0.0563   0.03202   0.02704  -0.2343  0.3572  0.0144  -6.0397   0.0000   0.0000   0.0000   5.0381
 -10.580   0.0554   0.03195   0.02697  -0.2342  0.3572  0.0144  -6.0401   0.0000   0.0000   0.0000   5.1079
 -10.570   0.0546   0.03188   0.02690  -0.2341  0.3572  0.0144  -6.0405   0.0000   0.0000   0.0000   5.1805
 -10.560   0.0537   0.03181   0.02683  -0.2340  0.3572  0.0144  -6.0409   0.0000   0.0000   0.0000   5.2562
 -10.550   0.0528   0.03174   0.02676  -0.2338  0.3572  0.0144  -6.0413   0.0000   0.0000   0.0000   5.3353
 -10.540   0.0520   0.03166   0.02668  -0.2337  0.3572  0.0144  -6.0418   0.0000   0.0000   0.0000   5.4181
 -10.530   0.0511   0.03159   0.02661  -0.2336  0.3571  0.0144  -6.0424   0.0000   0.0000   0.0000   5.5050
 -10.520   0.0502   0.03152   0.02654  -0.2335  0.3571  0.0144  -6.0430   0.0000   0.0000   0.0000   5.5965
 -10.510   0.0492   0.03145   0.02647  -0.2333  0.3571  0.0144  -6.0437   0.0000   0.0000   0.0000   5.6930
 -10.500   0.0483   0.03137   0.02639  -0.2332  0.3571  0.0144  -6.0444   0.0000   0.0000   0.0000   5.7952
 -10.490   0.0473   0.03130   0.02632  -0.2330  0.3571  0.0144  -6.0452   0.0000   0.0000   0.0000   5.9034
 -10.480   0.0464   0.03123   0.02625  -0.2329  0.3571  0.0144  -6.0462   0.0000   0.0000   0.0000   6.0187
 -10.470   0.0454   0.03115   0.02617  -0.2328  0.3571  0.0144  -6.0472   0.0000   0.0000   0.0000   6.1422
 -10.460   0.0443   0.03108   0.02609  -0.2326  0.3571  0.0144  -6.0483   0.0000   0.0000   0.0000   6.2750
 -10.450   0.0433   0.03100   0.02602  -0.2325  0.3571  0.0144  -6.0496   0.0000   0.0000   0.0000   6.4188
 -10.440   0.0422   0.03092   0.02594  -0.2323  0.3571  0.0144  -6.0511   0.0000   0.0000   0.0000   6.5752
 -10.430   0.0410   0.03084   0.02586  -0.2322  0.3570  0.0144  -6.0528   0.0000   0.0000   0.0000   6.7465
 -10.420   0.0398   0.03076   0.02578  -0.2320  0.3570  0.0144  -6.0547   0.0000   0.0000   0.0000   6.9357
 -10.410   0.0386   0.03068   0.02570  -0.2319  0.3570  0.0144  -6.0568   0.0000   0.0000   0.0000   7.1461
 -10.400   0.0373   0.03059   0.02561  -0.2317  0.3570  0.0144  -6.0592   0.0000   0.0000   0.0000   7.3818
 -10.390   0.0359   0.03050   0.02552  -0.2316  0.3570  0.0144  -6.0619   0.0000   0.0000   0.0000   7.6469
 -10.380   0.0346   0.03042   0.02544  -0.2314  0.3570  0.0144  -6.0647   0.0000   0.0000   0.0000   7.9354
 -10.370   0.0332   0.03033   0.02535  -0.2313  0.3570  0.0144  -6.0674   0.0000   0.0000   0.0000   8.2475
 -10.360   0.0318   0.03025   0.02526  -0.2311  0.3570  0.0144  -6.0700   0.0000   0.0000   0.0000   8.5829
 -10.350   0.0305   0.03016   0.02518  -0.2309  0.3570  0.0144  -6.0724   0.0000   0.0000   0.0000   8.9330
 -10.340   0.0293   0.03009   0.02511  -0.2308  0.3570  0.0144  -6.0743   0.0000   0.0000   0.0000   9.2901
 -10.330   0.0281   0.03002   0.02504  -0.2306  0.3570  0.0144  -6.0759   0.0000   0.0000   0.0000   9.6606
 -10.320   0.0269   0.02995   0.02497  -0.2304  0.3569  0.0144  -6.0773   0.0000   0.0000   0.0000  10.0586
 -10.310   0.0257   0.02988   0.02490  -0.2302  0.3569  0.0144  -6.0789   0.0000   0.0000   0.0000  10.5167
 -10.300   0.0244   0.02982   0.02484  -0.2300  0.3569  0.0144  -6.0808   0.0000   0.0000   0.0000  11.0541
 -10.290   0.0230   0.02976   0.02478  -0.2298  0.3569  0.0144  -6.0829   0.0000   0.0000   0.0000  11.6934
 -10.280   0.0215   0.02970   0.02472  -0.2295  0.3569  0.0144  -6.0855   0.0000   0.0000   0.0000  12.4655
 -10.270   0.0200   0.02964   0.02466  -0.2292  0.3569  0.0144  -6.0883   0.0000   0.0000   0.0000  13.4143
 -10.260   0.0183   0.02958   0.02460  -0.2290  0.3569  0.0144  -6.0916   0.0000   0.0000   0.0000  14.6030
 -10.250   0.0165   0.02952   0.02454  -0.2287  0.3569  0.0144  -6.0952   0.0000   0.0000   0.0000  16.1261
 -10.240   0.0146   0.02946   0.02448  -0.2283  0.3569  0.0144  -6.0991   0.0000   0.0000   0.0000  18.1317
 -10.230   0.0127   0.02940   0.02443  -0.2280  0.3569  0.0144  -6.1034   0.0000   0.0000   0.0000  20.8611
 -10.220   0.0107   0.02935   0.02437  -0.2277  0.3569  0.0144  -6.1079   0.0000   0.0000   0.0000  24.7541
 -10.210   0.0086   0.02929   0.02432  -0.2273  0.3569  0.0144  -6.1127   0.0000   0.0000   0.0000  30.6986
 -10.200   0.0064   0.02923   0.02426  -0.2270  0.3569  0.0144  -6.1177   0.0000   0.0000   0.0000  40.7903
 -10.190   0.0042   0.02918   0.02421  -0.2266  0.3569  0.0144  -6.1229   0.0000   0.0000   0.0000  61.5857
 -10.180   0.0020   0.02912   0.02415  -0.2262  0.3568  0.0144  -6.1282   0.0000   0.0000   0.0000  128.2726
 -10.170  -0.0002   0.02906   0.02409  -0.2259  0.3568  0.0144  -6.1336   0.0000   0.0000   0.0000  -1271.3005
 -10.160  -0.0025   0.02899   0.02403  -0.2255  0.3568  0.0144  -6.1391   0.0000   0.0000   0.0000  -105.2615
 -10.150  -0.0047   0.02893   0.02397  -0.2252  0.3568  0.0144  -6.1447   0.0000   0.0000   0.0000  -54.5117
 -10.140  -0.0070   0.02886   0.02390  -0.2248  0.3568  0.0144  -6.1504   0.0000   0.0000   0.0000  -36.5924
 -10.130  -0.0093   0.02880   0.02384  -0.2245  0.3568  0.0144  -6.1563   0.0000   0.0000   0.0000  -27.4289
 -10.120  -0.0116   0.02873   0.02377  -0.2241  0.3568  0.0144  -6.1623   0.0000   0.0000   0.0000  -21.8666
 -10.110  -0.0139   0.02866   0.02370  -0.2238  0.3568  0.0144  -6.1682   0.0000   0.0000   0.0000  -18.2128
 -10.100  -0.0162   0.02858   0.02363  -0.2234  0.3568  0.0144  -6.1739   0.0000   0.0000   0.0000  -15.6155
 -10.090  -0.0184   0.02851   0.02356  -0.2231  0.3568  0.0144  -6.1795   0.0000   0.0000   0.0000  -13.6830
 -10.080  -0.0205   0.02844   0.02349  -0.2228  0.3568  0.0144  -6.1847   0.0000   0.0000   0.0000  -12.2082
 -10.070  -0.0226   0.02838   0.02342  -0.2225  0.3568  0.0144  -6.1896   0.0000   0.0000   0.0000  -11.0589
 -10.060  -0.0245   0.02832   0.02336  -0.2222  0.3568  0.0144  -6.1940   0.0000   0.0000   0.0000  -10.1440
 -10.050  -0.0264   0.02825   0.02330  -0.2219  0.3568  0.0144  -6.1979   0.0000   0.0000   0.0000  -9.3990
 -10.040  -0.0282   0.02820   0.02324  -0.2216  0.3568  0.0144  -6.2017   0.0000   0.0000   0.0000  -8.7628
 -10.030  -0.0300   0.02814   0.02318  -0.2213  0.3568  0.0144  -6.2054   0.0000   0.0000   0.0000  -8.2049
 -10.020  -0.0318   0.02807   0.02313  -0.2210  0.3567  0.0144  -6.2092   0.0000   0.0000   0.0000  -7.7109
 -10.010  -0.0337   0.02801   0.02307  -0.2207  0.3567  0.0144  -6.2130   0.0000   0.0000   0.0000  -7.2698
 -10.000  -0.0355   0.02795   0.02300  -0.2204  0.3567  0.0144  -6.2168   0.0000   0.0000   0.0000  -6.8730
  -9.990  -0.0373   0.02789   0.02294  -0.2201  0.3567  0.0144  -6.2207   0.0000   0.0000   0.0000  -6.5135
  -9.980  -0.0392   0.02783   0.02288  -0.2198  0.3567  0.0144  -6.2247   0.0000   0.0000   0.0000  -6.1857
  -9.970  -0.0410   0.02776   0.02282  -0.2195  0.3567  0.0144  -6.2287   0.0000   0.0000   0.0000  -5.8858
  -9.960  -0.0429   0.02770   0.02275  -0.2192  0.3567  0.0144  -6.2328   0.0000   0.0000   0.0000  -5.6094
  -9.950  -0.0448   0.02763   0.02269  -0.2189  0.3567  0.0144  -6.2370   0.0000   0.0000   0.0000  -5.3532
  -9.940  -0.0468   0.02757   0.02262  -0.2186  0.3567  0.0144  -6.2413   0.0000   0.0000   0.0000  -5.1145
  -9.930  -0.0487   0.02750   0.02256  -0.2183  0.3567  0.0144  -6.2458   0.0000   0.0000   0.0000  -4.8912
  -9.920  -0.0507   0.02743   0.02249  -0.2180  0.3567  0.0144  -6.2505   0.0000   0.0000   0.0000  -4.6813
  -9.910  -0.0528   0.02736   0.02242  -0.2177  0.3567  0.0144  -6.2554   0.0000   0.0000   0.0000  -4.4832
  -9.900  -0.0549   0.02729   0.02235  -0.2174  0.3567  0.0144  -6.2606   0.0000   0.0000   0.0000  -4.2956
  -9.890  -0.0570   0.02721   0.02228  -0.2171  0.3567  0.0144  -6.2660   0.0000   0.0000   0.0000  -4.1174
  -9.880  -0.0593   0.02714   0.02220  -0.2168  0.3566  0.0144  -6.2717   0.0000   0.0000   0.0000  -3.9481
  -9.870  -0.0615   0.02706   0.02213  -0.2165  0.3566  0.0144  -6.2773   0.0000   0.0000   0.0000  -3.7917
  -9.860  -0.0637   0.02699   0.02205  -0.2162  0.3566  0.0144  -6.2830   0.0000   0.0000   0.0000  -3.6452
  -9.850  -0.0659   0.02691   0.02198  -0.2159  0.3566  0.0144  -6.2886   0.0000   0.0000   0.0000  -3.5088
  -9.840  -0.0681   0.02684   0.02191  -0.2156  0.3566  0.0144  -6.2941   0.0000   0.0000   0.0000  -3.3831
  -9.830  -0.0702   0.02677   0.02184  -0.2152  0.3566  0.0144  -6.2992   0.0000   0.0000   0.0000  -3.2680
  -9.820  -0.0723   0.02671   0.02178  -0.2149  0.3566  0.0144  -6.3040   0.0000   0.0000   0.0000  -3.1627
  -9.810  -0.0743   0.02665   0.02172  -0.2146  0.3566  0.0144  -6.3086   0.0000   0.0000   0.0000  -3.0650
  -9.800  -0.0764   0.02658   0.02166  -0.2143  0.3566  0.0144  -6.3133   0.0000   0.0000   0.0000  -2.9712
  -9.790  -0.0784   0.02652   0.02160  -0.2140  0.3566  0.0144  -6.3182   0.0000   0.0000   0.0000  -2.8808
  -9.780  -0.0806   0.02646   0.02154  -0.2136  0.3566  0.0144  -6.3232   0.0000   0.0000   0.0000  -2.7934
  -9.770  -0.0828   0.02640   0.02148  -0.2133  0.3566  0.0144  -6.3285   0.0000   0.0000   0.0000  -2.7088
  -9.760  -0.0850   0.02634   0.02141  -0.2130  0.3566  0.0144  -6.3339   0.0000   0.0000   0.0000  -2.6266
  -9.750  -0.0873   0.02627   0.02135  -0.2126  0.3566  0.0144  -6.3396   0.0000   0.0000   0.0000  -2.5468
  -9.740  -0.0896   0.02621   0.02129  -0.2123  0.3566  0.0144  -6.3456   0.0000   0.0000   0.0000  -2.4689
  -9.730  -0.0921   0.02615   0.02123  -0.2119  0.3566  0.0144  -6.3518   0.0000   0.0000   0.0000  -2.3928
  -9.720  -0.0946   0.02608   0.02117  -0.2115  0.3565  0.0144  -6.3585   0.0000   0.0000   0.0000  -2.3181
  -9.710  -0.0972   0.02602   0.02110  -0.2112  0.3565  0.0144  -6.3655   0.0000   0.0000   0.0000  -2.2448
  -9.700  -0.0999   0.02595   0.02104  -0.2108  0.3565  0.0144  -6.3731   0.0000   0.0000   0.0000  -2.1724
  -9.690  -0.1029   0.02589   0.02098  -0.2103  0.3565  0.0144  -6.3814   0.0000   0.0000   0.0000  -2.0987
  -9.680  -0.1061   0.02583   0.02092  -0.2099  0.3565  0.0144  -6.3909   0.0000   0.0000   0.0000  -2.0227
  -9.670  -0.1095   0.02577   0.02086  -0.2094  0.3565  0.0144  -6.4014   0.0000   0.0000   0.0000  -1.9458
  -9.660  -0.1132   0.02571   0.02081  -0.2088  0.3565  0.0144  -6.4126   0.0000   0.0000   0.0000  -1.8695
  -9.650  -0.1170   0.02565   0.02076  -0.2083  0.3565  0.0144  -6.4245   0.0000   0.0000   0.0000  -1.7948
  -9.640  -0.1210   0.02560   0.02071  -0.2077  0.3565  0.0144  -6.4370   0.0000   0.0000   0.0000  -1.7222
  -9.630  -0.1251   0.02555   0.02066  -0.2071  0.3565  0.0144  -6.4498   0.0000   0.0000   0.0000  -1.6525
  -9.620  -0.1293   0.02550   0.02062  -0.2064  0.3565  0.0144  -6.4629   0.0000   0.0000   0.0000  -1.5863
  -9.610  -0.1335   0.02546   0.02057  -0.2058  0.3565  0.0144  -6.4761   0.0000   0.0000   0.0000  -1.5234
  -9.600  -0.1377   0.02542   0.02054  -0.2052  0.3565  0.0144  -6.4894   0.0000   0.0000   0.0000  -1.4640
  -9.590  -0.1420   0.02538   0.02050  -0.2045  0.3565  0.0144  -6.5028   0.0000   0.0000   0.0000  -1.4076
  -9.580  -0.1463   0.02534   0.02047  -0.2039  0.3565  0.0144  -6.5164   0.0000   0.0000   0.0000  -1.3540
  -9.570  -0.1506   0.02530   0.02043  -0.2032  0.3565  0.0144  -6.5299   0.0000   0.0000   0.0000  -1.3039
  -9.560  -0.1548   0.02526   0.02039  -0.2026  0.3565  0.0144  -6.5431   0.0000   0.0000   0.0000  -1.2574
  -9.550  -0.1587   0.02521   0.02035  -0.2020  0.3565  0.0144  -6.5555   0.0000   0.0000   0.0000  -1.2158
  -9.540  -0.1623   0.02516   0.02030  -0.2014  0.3565  0.0144  -6.5664   0.0000   0.0000   0.0000  -1.1798
  -9.530  -0.1655   0.02509   0.02024  -0.2010  0.3565  0.0144  -6.5759   0.0000   0.0000   0.0000  -1.1490
  -9.520  -0.1683   0.02502   0.02017  -0.2006  0.3565  0.0144  -6.5838   0.0000   0.0000   0.0000  -1.1232
  -9.510  -0.1707   0.02494   0.02009  -0.2003  0.3565  0.0144  -6.5900   0.0000   0.0000   0.0000  -1.1022
  -9.500  -0.1730   0.02486   0.02001  -0.2000  0.3565  0.0144  -6.5962   0.0000   0.0000   0.0000  -1.0821
  -9.490  -0.1753   0.02478   0.01992  -0.1997  0.3565  0.0143  -6.6023   0.0000   0.0000   0.0000  -1.0627
  -9.480  -0.1776   0.02469   0.01984  -0.1994  0.3565  0.0143  -6.6085   0.0000   0.0000   0.0000  -1.0437
  -9.470  -0.1799   0.02460   0.01975  -0.1991  0.3565  0.0143  -6.6144   0.0000   0.0000   0.0000  -1.0259
  -9.460  -0.1820   0.02451   0.01966  -0.1988  0.3565  0.0143  -6.6200   0.0000   0.0000   0.0000  -1.0090
  -9.450  -0.1841   0.02442   0.01957  -0.1986  0.3564  0.0143  -6.6253   0.0000   0.0000   0.0000  -0.9932
  -9.440  -0.1861   0.02433   0.01948  -0.1984  0.3564  0.0143  -6.6302   0.0000   0.0000   0.0000  -0.9784
  -9.430  -0.1879   0.02424   0.01939  -0.1981  0.3564  0.0143  -6.6344   0.0000   0.0000   0.0000  -0.9649
  -9.420  -0.1897   0.02416   0.01931  -0.1979  0.3564  0.0143  -6.6380   0.0000   0.0000   0.0000  -0.9526
  -9.410  -0.1913   0.02407   0.01922  -0.1977  0.3564  0.0143  -6.6414   0.0000   0.0000   0.0000  -0.9409
  -9.400  -0.1929   0.02399   0.01914  -0.1975  0.3564  0.0143  -6.6446   0.0000   0.0000   0.0000  -0.9297
  -9.390  -0.1945   0.02390   0.01905  -0.1973  0.3564  0.0143  -6.6477   0.0000   0.0000   0.0000  -0.9189
  -9.380  -0.1961   0.02381   0.01896  -0.1971  0.3564  0.0143  -6.6508   0.0000   0.0000   0.0000  -0.9085
  -9.370  -0.1976   0.02371   0.01886  -0.1969  0.3563  0.0143  -6.6539   0.0000   0.0000   0.0000  -0.8984
  -9.360  -0.1991   0.02362   0.01877  -0.1968  0.3563  0.0143  -6.6569   0.0000   0.0000   0.0000  -0.8885
  -9.350  -0.2006   0.02352   0.01867  -0.1966  0.3563  0.0143  -6.6599   0.0000   0.0000   0.0000  -0.8791
  -9.340  -0.2020   0.02342   0.01857  -0.1965  0.3563  0.0143  -6.6625   0.0000   0.0000   0.0000  -0.8701
  -9.330  -0.2034   0.02332   0.01847  -0.1963  0.3563  0.0143  -6.6651   0.0000   0.0000   0.0000  -0.8616
  -9.320  -0.2048   0.02322   0.01837  -0.1962  0.3563  0.0143  -6.6673   0.0000   0.0000   0.0000  -0.8535
  -9.310  -0.2060   0.02312   0.01827  -0.1961  0.3563  0.0143  -6.6693   0.0000   0.0000   0.0000  -0.8459
  -9.300  -0.2073   0.02303   0.01818  -0.1959  0.3562  0.0144  -6.6710   0.0000   0.0000   0.0000  -0.8385
  -9.290  -0.2085   0.02294   0.01808  -0.1958  0.3562  0.0144  -6.6727   0.0000   0.0000   0.0000  -0.8312
  -9.280  -0.2097   0.02285   0.01799  -0.1956  0.3562  0.0144  -6.6745   0.0000   0.0000   0.0000  -0.8239
  -9.270  -0.2110   0.02275   0.01790  -0.1955  0.3562  0.0144  -6.6763   0.0000   0.0000   0.0000  -0.8167
  -9.260  -0.2122   0.02265   0.01780  -0.1954  0.3562  0.0144  -6.6782   0.0000   0.0000   0.0000  -0.8096
  -9.250  -0.2135   0.02256   0.01770  -0.1953  0.3562  0.0144  -6.6800   0.0000   0.0000   0.0000  -0.8028
  -9.240  -0.2146   0.02246   0.01760  -0.1951  0.3561  0.0144  -6.6816   0.0000   0.0000   0.0000  -0.7963
  -9.230  -0.2158   0.02236   0.01750  -0.1950  0.3561  0.0144  -6.6830   0.0000   0.0000   0.0000  -0.7900
  -9.220  -0.2169   0.02226   0.01740  -0.1949  0.3561  0.0144  -6.6841   0.0000   0.0000   0.0000  -0.7842
  -9.210  -0.2178   0.02217   0.01730  -0.1948  0.3561  0.0144  -6.6848   0.0000   0.0000   0.0000  -0.7789
  -9.200  -0.2187   0.02207   0.01721  -0.1947  0.3561  0.0144  -6.6852   0.0000   0.0000   0.0000  -0.7740
  -9.190  -0.2196   0.02198   0.01711  -0.1947  0.3560  0.0144  -6.6854   0.0000   0.0000   0.0000  -0.7695
  -9.180  -0.2204   0.02188   0.01701  -0.1946  0.3560  0.0144  -6.6855   0.0000   0.0000   0.0000  -0.7651
  -9.170  -0.2212   0.02178   0.01691  -0.1945  0.3560  0.0144  -6.6855   0.0000   0.0000   0.0000  -0.7611
  -9.160  -0.2219   0.02168   0.01681  -0.1945  0.3560  0.0144  -6.6852   0.0000   0.0000   0.0000  -0.7574
  -9.150  -0.2226   0.02158   0.01670  -0.1944  0.3560  0.0144  -6.6847   0.0000   0.0000   0.0000  -0.7540
  -9.140  -0.2232   0.02148   0.01660  -0.1944  0.3559  0.0144  -6.6839   0.0000   0.0000   0.0000  -0.7509
  -9.130  -0.2238   0.02138   0.01650  -0.1944  0.3559  0.0144  -6.6827   0.0000   0.0000   0.0000  -0.7482
  -9.120  -0.2242   0.02129   0.01640  -0.1943  0.3559  0.0144  -6.6813   0.0000   0.0000   0.0000  -0.7458
  -9.110  -0.2247   0.02119   0.01630  -0.1943  0.3559  0.0144  -6.6797   0.0000   0.0000   0.0000  -0.7436
  -9.100  -0.2251   0.02109   0.01620  -0.1943  0.3558  0.0144  -6.6781   0.0000   0.0000   0.0000  -0.7416
  -9.090  -0.2254   0.02098   0.01610  -0.1943  0.3558  0.0144  -6.6763   0.0000   0.0000   0.0000  -0.7398
  -9.080  -0.2257   0.02088   0.01599  -0.1943  0.3558  0.0144  -6.6743   0.0000   0.0000   0.0000  -0.7383
  -9.070  -0.2260   0.02078   0.01589  -0.1943  0.3558  0.0144  -6.6721   0.0000   0.0000   0.0000  -0.7370
  -9.060  -0.2262   0.02068   0.01579  -0.1944  0.3557  0.0144  -6.6695   0.0000   0.0000   0.0000  -0.7361
  -9.050  -0.2263   0.02059   0.01569  -0.1944  0.3557  0.0144  -6.6666   0.0000   0.0000   0.0000  -0.7354
  -9.040  -0.2264   0.02049   0.01559  -0.1944  0.3557  0.0144  -6.6636   0.0000   0.0000   0.0000  -0.7349
  -9.030  -0.2265   0.02039   0.01548  -0.1944  0.3557  0.0144  -6.6606   0.0000   0.0000   0.0000  -0.7346
  -9.020  -0.2265   0.02029   0.01538  -0.1945  0.3556  0.0144  -6.6573   0.0000   0.0000   0.0000  -0.7346
  -9.010  -0.2265   0.02019   0.01528  -0.1945  0.3556  0.0144  -6.6540   0.0000   0.0000   0.0000  -0.7346
  -9.000  -0.2265   0.02009   0.01517  -0.1946  0.3556  0.0144  -6.6506   0.0000   0.0000   0.0000  -0.7348
  -8.990  -0.2264   0.01999   0.01507  -0.1946  0.3556  0.0144  -6.6469   0.0000   0.0000   0.0000  -0.7351
  -8.980  -0.2263   0.01989   0.01497  -0.1947  0.3555  0.0144  -6.6430   0.0000   0.0000   0.0000  -0.7357
  -8.970  -0.2261   0.01980   0.01487  -0.1948  0.3555  0.0144  -6.6391   0.0000   0.0000   0.0000  -0.7364
  -8.960  -0.2260   0.01970   0.01477  -0.1948  0.3555  0.0144  -6.6350   0.0000   0.0000   0.0000  -0.7372
  -8.950  -0.2258   0.01960   0.01466  -0.1949  0.3554  0.0144  -6.6308   0.0000   0.0000   0.0000  -0.7383
  -8.940  -0.2255   0.01950   0.01456  -0.1950  0.3554  0.0144  -6.6264   0.0000   0.0000   0.0000  -0.7396
  -8.930  -0.2252   0.01940   0.01446  -0.1951  0.3554  0.0144  -6.6218   0.0000   0.0000   0.0000  -0.7412
  -8.920  -0.2248   0.01930   0.01436  -0.1952  0.3553  0.0144  -6.6169   0.0000   0.0000   0.0000  -0.7430
  -8.910  -0.2244   0.01921   0.01426  -0.1953  0.3553  0.0144  -6.6119   0.0000   0.0000   0.0000  -0.7451
  -8.900  -0.2240   0.01911   0.01415  -0.1954  0.3553  0.0144  -6.6066   0.0000   0.0000   0.0000  -0.7473
  -8.890  -0.2235   0.01901   0.01406  -0.1955  0.3552  0.0144  -6.6012   0.0000   0.0000   0.0000  -0.7498
  -8.880  -0.2229   0.01892   0.01396  -0.1956  0.3552  0.0144  -6.5955   0.0000   0.0000   0.0000  -0.7526
  -8.870  -0.2224   0.01883   0.01386  -0.1957  0.3552  0.0144  -6.5897   0.0000   0.0000   0.0000  -0.7556
  -8.860  -0.2217   0.01874   0.01376  -0.1959  0.3552  0.0144  -6.5836   0.0000   0.0000   0.0000  -0.7587
  -8.850  -0.2211   0.01865   0.01367  -0.1960  0.3551  0.0144  -6.5773   0.0000   0.0000   0.0000  -0.7621
  -8.840  -0.2204   0.01856   0.01358  -0.1961  0.3551  0.0144  -6.5708   0.0000   0.0000   0.0000  -0.7657
  -8.830  -0.2196   0.01848   0.01349  -0.1962  0.3551  0.0144  -6.5642   0.0000   0.0000   0.0000  -0.7694
  -8.820  -0.2189   0.01840   0.01341  -0.1963  0.3551  0.0144  -6.5575   0.0000   0.0000   0.0000  -0.7731
  -8.810  -0.2181   0.01832   0.01333  -0.1964  0.3550  0.0144  -6.5506   0.0000   0.0000   0.0000  -0.7769
  -8.800  -0.2174   0.01825   0.01325  -0.1965  0.3550  0.0144  -6.5436   0.0000   0.0000   0.0000  -0.7806
  -8.790  -0.2166   0.01819   0.01318  -0.1965  0.3550  0.0144  -6.5365   0.0000   0.0000   0.0000  -0.7843
  -8.780  -0.2159   0.01813   0.01312  -0.1966  0.3550  0.0144  -6.5293   0.0000   0.0000   0.0000  -0.7879
  -8.770  -0.2151   0.01807   0.01306  -0.1966  0.3549  0.0144  -6.5221   0.0000   0.0000   0.0000  -0.7914
  -8.760  -0.2144   0.01802   0.01301  -0.1966  0.3549  0.0144  -6.5149   0.0000   0.0000   0.0000  -0.7948
  -8.750  -0.2137   0.01798   0.01295  -0.1966  0.3549  0.0144  -6.5076   0.0000   0.0000   0.0000  -0.7982
  -8.740  -0.2129   0.01793   0.01291  -0.1966  0.3549  0.0144  -6.5004   0.0000   0.0000   0.0000  -0.8015
  -8.730  -0.2122   0.01789   0.01286  -0.1966  0.3548  0.0144  -6.4930   0.0000   0.0000   0.0000  -0.8048
  -8.720  -0.2115   0.01785   0.01282  -0.1966  0.3548  0.0144  -6.4857   0.0000   0.0000   0.0000  -0.8081
  -8.710  -0.2108   0.01781   0.01277  -0.1965  0.3548  0.0144  -6.4783   0.0000   0.0000   0.0000  -0.8114
  -8.700  -0.2100   0.01777   0.01273  -0.1965  0.3548  0.0144  -6.4708   0.0000   0.0000   0.0000  -0.8148
  -8.690  -0.2093   0.01773   0.01269  -0.1965  0.3547  0.0144  -6.4633   0.0000   0.0000   0.0000  -0.8182
  -8.680  -0.2085   0.01769   0.01265  -0.1965  0.3547  0.0144  -6.4558   0.0000   0.0000   0.0000  -0.8218
  -8.670  -0.2078   0.01766   0.01261  -0.1964  0.3547  0.0144  -6.4482   0.0000   0.0000   0.0000  -0.8254
  -8.660  -0.2070   0.01762   0.01257  -0.1964  0.3546  0.0144  -6.4405   0.0000   0.0000   0.0000  -0.8291
  -8.650  -0.2062   0.01758   0.01253  -0.1964  0.3546  0.0144  -6.4329   0.0000   0.0000   0.0000  -0.8328
  -8.640  -0.2054   0.01755   0.01249  -0.1963  0.3546  0.0144  -6.4251   0.0000   0.0000   0.0000  -0.8367
  -8.630  -0.2046   0.01751   0.01245  -0.1963  0.3546  0.0144  -6.4174   0.0000   0.0000   0.0000  -0.8406
  -8.620  -0.2038   0.01748   0.01242  -0.1963  0.3545  0.0144  -6.4096   0.0000   0.0000   0.0000  -0.8446
  -8.610  -0.2030   0.01745   0.01238  -0.1962  0.3545  0.0144  -6.4017   0.0000   0.0000   0.0000  -0.8486
  -8.600  -0.2021   0.01741   0.01234  -0.1962  0.3545  0.0144  -6.3938   0.0000   0.0000   0.0000  -0.8528
  -8.590  -0.2013   0.01738   0.01231  -0.1962  0.3545  0.0144  -6.3859   0.0000   0.0000   0.0000  -0.8570
  -8.580  -0.2005   0.01735   0.01227  -0.1961  0.3544  0.0145  -6.3780   0.0000   0.0000   0.0000  -0.8613
  -8.570  -0.1996   0.01732   0.01224  -0.1961  0.3544  0.0145  -6.3700   0.0000   0.0000   0.0000  -0.8656
  -8.560  -0.1988   0.01729   0.01220  -0.1961  0.3544  0.0145  -6.3621   0.0000   0.0000   0.0000  -0.8699
  -8.550  -0.1979   0.01725   0.01217  -0.1960  0.3543  0.0145  -6.3541   0.0000   0.0000   0.0000  -0.8743
  -8.540  -0.1971   0.01722   0.01213  -0.1960  0.3543  0.0145  -6.3462   0.0000   0.0000   0.0000  -0.8787
  -8.530  -0.1962   0.01719   0.01210  -0.1959  0.3543  0.0145  -6.3382   0.0000   0.0000   0.0000  -0.8831
  -8.520  -0.1954   0.01716   0.01207  -0.1959  0.3542  0.0145  -6.3302   0.0000   0.0000   0.0000  -0.8876
  -8.510  -0.1945   0.01714   0.01204  -0.1959  0.3542  0.0145  -6.3223   0.0000   0.0000   0.0000  -0.8921
  -8.500  -0.1937   0.01711   0.01201  -0.1958  0.3542  0.0145  -6.3143   0.0000   0.0000   0.0000  -0.8967
  -8.490  -0.1929   0.01708   0.01198  -0.1958  0.3541  0.0145  -6.3063   0.0000   0.0000   0.0000  -0.9013
  -8.480  -0.1920   0.01705   0.01195  -0.1957  0.3541  0.0145  -6.2983   0.0000   0.0000   0.0000  -0.9059
  -8.470  -0.1911   0.01702   0.01192  -0.1957  0.3541  0.0145  -6.2903   0.0000   0.0000   0.0000  -0.9106
  -8.460  -0.1903   0.01700   0.01189  -0.1956  0.3540  0.0145  -6.2822   0.0000   0.0000   0.0000  -0.9154
  -8.450  -0.1894   0.01697   0.01186  -0.1956  0.3540  0.0145  -6.2742   0.0000   0.0000   0.0000  -0.9202
  -8.440  -0.1886   0.01694   0.01183  -0.1956  0.3540  0.0145  -6.2661   0.0000   0.0000   0.0000  -0.9251
  -8.430  -0.1877   0.01692   0.01180  -0.1955  0.3540  0.0145  -6.2581   0.0000   0.0000   0.0000  -0.9301
  -8.420  -0.1868   0.01689   0.01177  -0.1955  0.3539  0.0145  -6.2500   0.0000   0.0000   0.0000  -0.9352
  -8.410  -0.1859   0.01687   0.01174  -0.1954  0.3539  0.0145  -6.2419   0.0000   0.0000   0.0000  -0.9403
  -8.400  -0.1851   0.01684   0.01171  -0.1954  0.3539  0.0145  -6.2337   0.0000   0.0000   0.0000  -0.9455
  -8.390  -0.1842   0.01682   0.01169  -0.1953  0.3538  0.0145  -6.2256   0.0000   0.0000   0.0000  -0.9508
  -8.380  -0.1833   0.01679   0.01166  -0.1953  0.3538  0.0145  -6.2174   0.0000   0.0000   0.0000  -0.9562
  -8.370  -0.1824   0.01677   0.01163  -0.1952  0.3537  0.0145  -6.2092   0.0000   0.0000   0.0000  -0.9616
  -8.360  -0.1815   0.01675   0.01161  -0.1952  0.3537  0.0145  -6.2010   0.0000   0.0000   0.0000  -0.9671
  -8.350  -0.1806   0.01672   0.01158  -0.1951  0.3537  0.0145  -6.1928   0.0000   0.0000   0.0000  -0.9728
  -8.340  -0.1797   0.01670   0.01155  -0.1951  0.3536  0.0145  -6.1846   0.0000   0.0000   0.0000  -0.9785
  -8.330  -0.1787   0.01668   0.01153  -0.1950  0.3536  0.0145  -6.1763   0.0000   0.0000   0.0000  -0.9843
  -8.320  -0.1778   0.01665   0.01150  -0.1950  0.3536  0.0145  -6.1680   0.0000   0.0000   0.0000  -0.9903
  -8.310  -0.1769   0.01663   0.01148  -0.1949  0.3535  0.0145  -6.1597   0.0000   0.0000   0.0000  -0.9963
  -8.300  -0.1760   0.01661   0.01145  -0.1949  0.3535  0.0145  -6.1514   0.0000   0.0000   0.0000  -1.0024
  -8.290  -0.1750   0.01658   0.01143  -0.1948  0.3535  0.0145  -6.1430   0.0000   0.0000   0.0000  -1.0087
  -8.280  -0.1741   0.01656   0.01140  -0.1948  0.3534  0.0145  -6.1346   0.0000   0.0000   0.0000  -1.0150
  -8.270  -0.1731   0.01654   0.01138  -0.1948  0.3534  0.0145  -6.1263   0.0000   0.0000   0.0000  -1.0215
  -8.260  -0.1721   0.01652   0.01135  -0.1947  0.3534  0.0145  -6.1179   0.0000   0.0000   0.0000  -1.0281
  -8.250  -0.1712   0.01650   0.01133  -0.1947  0.3533  0.0145  -6.1094   0.0000   0.0000   0.0000  -1.0348
  -8.240  -0.1702   0.01648   0.01130  -0.1946  0.3533  0.0145  -6.1010   0.0000   0.0000   0.0000  -1.0416
  -8.230  -0.1692   0.01645   0.01128  -0.1946  0.3532  0.0145  -6.0925   0.0000   0.0000   0.0000  -1.0485
  -8.220  -0.1683   0.01643   0.01126  -0.1945  0.3532  0.0145  -6.0841   0.0000   0.0000   0.0000  -1.0556
  -8.210  -0.1673   0.01641   0.01123  -0.1945  0.3532  0.0145  -6.0756   0.0000   0.0000   0.0000  -1.0627
  -8.200  -0.1663   0.01639   0.01121  -0.1944  0.3531  0.0145  -6.0671   0.0000   0.0000   0.0000  -1.0700
  -8.190  -0.1653   0.01637   0.01119  -0.1944  0.3531  0.0145  -6.0586   0.0000   0.0000   0.0000  -1.0774
  -8.180  -0.1643   0.01635   0.01116  -0.1943  0.3531  0.0145  -6.0501   0.0000   0.0000   0.0000  -1.0850
  -8.170  -0.1633   0.01633   0.01114  -0.1943  0.3530  0.0145  -6.0415   0.0000   0.0000   0.0000  -1.0926
  -8.160  -0.1623   0.01631   0.01112  -0.1943  0.3530  0.0145  -6.0330   0.0000   0.0000   0.0000  -1.1004
  -8.150  -0.1613   0.01629   0.01110  -0.1942  0.3529  0.0145  -6.0244   0.0000   0.0000   0.0000  -1.1084
  -8.140  -0.1603   0.01627   0.01107  -0.1942  0.3529  0.0145  -6.0158   0.0000   0.0000   0.0000  -1.1164
  -8.130  -0.1592   0.01625   0.01105  -0.1941  0.3529  0.0145  -6.0072   0.0000   0.0000   0.0000  -1.1246
  -8.120  -0.1582   0.01623   0.01103  -0.1941  0.3528  0.0145  -5.9987   0.0000   0.0000   0.0000  -1.1330
  -8.110  -0.1572   0.01621   0.01101  -0.1940  0.3528  0.0145  -5.9900   0.0000   0.0000   0.0000  -1.1415
  -8.100  -0.1562   0.01620   0.01099  -0.1940  0.3528  0.0145  -5.9814   0.0000   0.0000   0.0000  -1.1501
  -8.090  -0.1551   0.01618   0.01097  -0.1939  0.3527  0.0145  -5.9728   0.0000   0.0000   0.0000  -1.1589
  -8.080  -0.1541   0.01616   0.01094  -0.1939  0.3527  0.0145  -5.9642   0.0000   0.0000   0.0000  -1.1678
  -8.070  -0.1531   0.01614   0.01092  -0.1939  0.3526  0.0146  -5.9555   0.0000   0.0000   0.0000  -1.1769
  -8.060  -0.1520   0.01612   0.01090  -0.1938  0.3526  0.0146  -5.9469   0.0000   0.0000   0.0000  -1.1861
  -8.050  -0.1510   0.01610   0.01088  -0.1938  0.3526  0.0146  -5.9383   0.0000   0.0000   0.0000  -1.1955
  -8.040  -0.1499   0.01609   0.01086  -0.1937  0.3525  0.0146  -5.9296   0.0000   0.0000   0.0000  -1.2050
  -8.030  -0.1489   0.01607   0.01084  -0.1937  0.3525  0.0146  -5.9209   0.0000   0.0000   0.0000  -1.2147
  -8.020  -0.1478   0.01605   0.01082  -0.1936  0.3524  0.0146  -5.9123   0.0000   0.0000   0.0000  -1.2246
  -8.010  -0.1468   0.01603   0.01080  -0.1936  0.3524  0.0146  -5.9036   0.0000   0.0000   0.0000  -1.2346
  -8.000  -0.1457   0.01602   0.01078  -0.1936  0.3524  0.0146  -5.8949   0.0000   0.0000   0.0000  -1.2449
  -7.990  -0.1446   0.01600   0.01076  -0.1935  0.3523  0.0146  -5.8862   0.0000   0.0000   0.0000  -1.2553
  -7.980  -0.1436   0.01598   0.01074  -0.1935  0.3523  0.0146  -5.8775   0.0000   0.0000   0.0000  -1.2659
  -7.970  -0.1425   0.01596   0.01072  -0.1934  0.3523  0.0146  -5.8688   0.0000   0.0000   0.0000  -1.2766
  -7.960  -0.1414   0.01595   0.01070  -0.1934  0.3522  0.0146  -5.8601   0.0000   0.0000   0.0000  -1.2876
  -7.950  -0.1404   0.01593   0.01068  -0.1933  0.3522  0.0146  -5.8514   0.0000   0.0000   0.0000  -1.2987
  -7.940  -0.1393   0.01591   0.01067  -0.1933  0.3521  0.0146  -5.8427   0.0000   0.0000   0.0000  -1.3101
  -7.930  -0.1382   0.01590   0.01065  -0.1932  0.3521  0.0146  -5.8340   0.0000   0.0000   0.0000  -1.3216
  -7.920  -0.1371   0.01588   0.01063  -0.1932  0.3521  0.0146  -5.8253   0.0000   0.0000   0.0000  -1.3334
  -7.910  -0.1361   0.01586   0.01061  -0.1932  0.3520  0.0146  -5.8166   0.0000   0.0000   0.0000  -1.3454
  -7.900  -0.1350   0.01585   0.01059  -0.1931  0.3520  0.0146  -5.8079   0.0000   0.0000   0.0000  -1.3575
  -7.890  -0.1339   0.01583   0.01057  -0.1931  0.3520  0.0146  -5.7992   0.0000   0.0000   0.0000  -1.3698
  -7.880  -0.1328   0.01582   0.01055  -0.1930  0.3519  0.0146  -5.7905   0.0000   0.0000   0.0000  -1.3822
  -7.870  -0.1318   0.01580   0.01054  -0.1930  0.3519  0.0146  -5.7819   0.0000   0.0000   0.0000  -1.3949
  -7.860  -0.1307   0.01579   0.01052  -0.1929  0.3518  0.0146  -5.7733   0.0000   0.0000   0.0000  -1.4076
  -7.850  -0.1296   0.01577   0.01050  -0.1929  0.3518  0.0146  -5.7646   0.0000   0.0000   0.0000  -1.4206
  -7.840  -0.1286   0.01576   0.01048  -0.1928  0.3518  0.0146  -5.7560   0.0000   0.0000   0.0000  -1.4337
  -7.830  -0.1275   0.01574   0.01047  -0.1928  0.3517  0.0146  -5.7474   0.0000   0.0000   0.0000  -1.4471
  -7.820  -0.1264   0.01573   0.01045  -0.1927  0.3517  0.0146  -5.7389   0.0000   0.0000   0.0000  -1.4606
  -7.810  -0.1254   0.01571   0.01043  -0.1927  0.3517  0.0146  -5.7303   0.0000   0.0000   0.0000  -1.4743
  -7.800  -0.1243   0.01570   0.01042  -0.1926  0.3516  0.0146  -5.7217   0.0000   0.0000   0.0000  -1.4882
  -7.790  -0.1233   0.01568   0.01040  -0.1926  0.3516  0.0146  -5.7132   0.0000   0.0000   0.0000  -1.5024
  -7.780  -0.1222   0.01567   0.01038  -0.1925  0.3516  0.0146  -5.7046   0.0000   0.0000   0.0000  -1.5168
  -7.770  -0.1212   0.01566   0.01037  -0.1925  0.3515  0.0146  -5.6961   0.0000   0.0000   0.0000  -1.5314
  -7.760  -0.1201   0.01564   0.01035  -0.1924  0.3515  0.0146  -5.6876   0.0000   0.0000   0.0000  -1.5463
  -7.750  -0.1191   0.01563   0.01034  -0.1924  0.3515  0.0146  -5.6791   0.0000   0.0000   0.0000  -1.5615
  -7.740  -0.1180   0.01561   0.01032  -0.1923  0.3514  0.0146  -5.6705   0.0000   0.0000   0.0000  -1.5769
  -7.730  -0.1169   0.01560   0.01030  -0.1923  0.3514  0.0146  -5.6620   0.0000   0.0000   0.0000  -1.5927
  -7.720  -0.1159   0.01559   0.01029  -0.1922  0.3514  0.0146  -5.6535   0.0000   0.0000   0.0000  -1.6087
  -7.710  -0.1148   0.01557   0.01027  -0.1922  0.3513  0.0146  -5.6450   0.0000   0.0000   0.0000  -1.6251
  -7.700  -0.1138   0.01556   0.01026  -0.1921  0.3513  0.0146  -5.6365   0.0000   0.0000   0.0000  -1.6419
  -7.690  -0.1127   0.01555   0.01024  -0.1921  0.3513  0.0146  -5.6279   0.0000   0.0000   0.0000  -1.6589
  -7.680  -0.1116   0.01554   0.01023  -0.1920  0.3513  0.0146  -5.6194   0.0000   0.0000   0.0000  -1.6764
  -7.670  -0.1106   0.01552   0.01021  -0.1920  0.3512  0.0146  -5.6109   0.0000   0.0000   0.0000  -1.6942
  -7.660  -0.1095   0.01551   0.01020  -0.1919  0.3512  0.0146  -5.6024   0.0000   0.0000   0.0000  -1.7123
  -7.650  -0.1084   0.01550   0.01018  -0.1919  0.3512  0.0146  -5.5939   0.0000   0.0000   0.0000  -1.7309
  -7.640  -0.1073   0.01548   0.01017  -0.1918  0.3512  0.0146  -5.5853   0.0000   0.0000   0.0000  -1.7499
  -7.630  -0.1063   0.01547   0.01015  -0.1918  0.3511  0.0146  -5.5768   0.0000   0.0000   0.0000  -1.7693
  -7.620  -0.1052   0.01546   0.01014  -0.1917  0.3511  0.0146  -5.5683   0.0000   0.0000   0.0000  -1.7893
  -7.610  -0.1041   0.01545   0.01012  -0.1917  0.3511  0.0146  -5.5597   0.0000   0.0000   0.0000  -1.8096
  -7.600  -0.1030   0.01543   0.01011  -0.1916  0.3511  0.0146  -5.5512   0.0000   0.0000   0.0000  -1.8305
  -7.590  -0.1019   0.01542   0.01010  -0.1916  0.3510  0.0147  -5.5426   0.0000   0.0000   0.0000  -1.8519
  -7.580  -0.1008   0.01541   0.01008  -0.1915  0.3510  0.0147  -5.5341   0.0000   0.0000   0.0000  -1.8739
  -7.570  -0.0997   0.01540   0.01007  -0.1915  0.3510  0.0147  -5.5255   0.0000   0.0000   0.0000  -1.8964
  -7.560  -0.0986   0.01538   0.01005  -0.1914  0.3510  0.0147  -5.5170   0.0000   0.0000   0.0000  -1.9195
  -7.550  -0.0975   0.01537   0.01004  -0.1914  0.3510  0.0147  -5.5084   0.0000   0.0000   0.0000  -1.9431
  -7.540  -0.0964   0.01536   0.01002  -0.1914  0.3510  0.0147  -5.4998   0.0000   0.0000   0.0000  -1.9674
  -7.530  -0.0953   0.01535   0.01001  -0.1913  0.3509  0.0147  -5.4912   0.0000   0.0000   0.0000  -1.9924
  -7.520  -0.0942   0.01534   0.01000  -0.1913  0.3509  0.0147  -5.4826   0.0000   0.0000   0.0000  -2.0180
  -7.510  -0.0931   0.01532   0.00998  -0.1912  0.3509  0.0147  -5.4741   0.0000   0.0000   0.0000  -2.0442
  -7.500  -0.0920   0.01531   0.00997  -0.1912  0.3509  0.0147  -5.4655   0.0000   0.0000   0.0000  -2.0712
  -7.490  -0.0908   0.01530   0.00995  -0.1911  0.3509  0.0147  -5.4569   0.0000   0.0000   0.0000  -2.0989
  -7.480  -0.0897   0.01529   0.00994  -0.1911  0.3509  0.0147  -5.4483   0.0000   0.0000   0.0000  -2.1274
  -7.470  -0.0886   0.01528   0.00993  -0.1910  0.3509  0.0147  -5.4397   0.0000   0.0000   0.0000  -2.1566
  -7.460  -0.0875   0.01527   0.00991  -0.1910  0.3508  0.0147  -5.4311   0.0000   0.0000   0.0000  -2.1866
  -7.450  -0.0863   0.01525   0.00990  -0.1909  0.3508  0.0147  -5.4225   0.0000   0.0000   0.0000  -2.2175
  -7.440  -0.0852   0.01524   0.00989  -0.1909  0.3508  0.0147  -5.4140   0.0000   0.0000   0.0000  -2.2493
  -7.430  -0.0841   0.01523   0.00987  -0.1908  0.3508  0.0147  -5.4054   0.0000   0.0000   0.0000  -2.2819
  -7.420  -0.0829   0.01522   0.00986  -0.1908  0.3508  0.0147  -5.3968   0.0000   0.0000   0.0000  -2.3156
  -7.410  -0.0818   0.01521   0.00985  -0.1908  0.3508  0.0147  -5.3882   0.0000   0.0000   0.0000  -2.3502
  -7.400  -0.0807   0.01520   0.00983  -0.1907  0.3508  0.0147  -5.3796   0.0000   0.0000   0.0000  -2.3858
  -7.390  -0.0795   0.01519   0.00982  -0.1907  0.3507  0.0147  -5.3710   0.0000   0.0000   0.0000  -2.4226
  -7.380  -0.0784   0.01517   0.00981  -0.1906  0.3507  0.0147  -5.3625   0.0000   0.0000   0.0000  -2.4604
  -7.370  -0.0772   0.01516   0.00979  -0.1906  0.3507  0.0147  -5.3539   0.0000   0.0000   0.0000  -2.4995
  -7.360  -0.0761   0.01515   0.00978  -0.1905  0.3507  0.0147  -5.3453   0.0000   0.0000   0.0000  -2.5397
  -7.350  -0.0750   0.01514   0.00977  -0.1905  0.3507  0.0147  -5.3367   0.0000   0.0000   0.0000  -2.5813
  -7.340  -0.0738   0.01513   0.00976  -0.1905  0.3507  0.0147  -5.3282   0.0000   0.0000   0.0000  -2.6242
  -7.330  -0.0727   0.01512   0.00974  -0.1904  0.3507  0.0147  -5.3196   0.0000   0.0000   0.0000  -2.6685
  -7.320  -0.0715   0.01511   0.00973  -0.1904  0.3506  0.0147  -5.3110   0.0000   0.0000   0.0000  -2.7143
  -7.310  -0.0704   0.01510   0.00972  -0.1903  0.3506  0.0147  -5.3025   0.0000   0.0000   0.0000  -2.7617
  -7.300  -0.0692   0.01509   0.00970  -0.1903  0.3506  0.0147  -5.2939   0.0000   0.0000   0.0000  -2.8107
  -7.290  -0.0680   0.01508   0.00969  -0.1902  0.3506  0.0147  -5.2853   0.0000   0.0000   0.0000  -2.8614
  -7.280  -0.0669   0.01507   0.00968  -0.1902  0.3506  0.0147  -5.2768   0.0000   0.0000   0.0000  -2.9139
  -7.270  -0.0657   0.01506   0.00967  -0.1901  0.3506  0.0147  -5.2682   0.0000   0.0000   0.0000  -2.9683
  -7.260  -0.0646   0.01505   0.00966  -0.1901  0.3506  0.0147  -5.2597   0.0000   0.0000   0.0000  -3.0248
  -7.250  -0.0634   0.01504   0.00964  -0.1901  0.3505  0.0147  -5.2511   0.0000   0.0000   0.0000  -3.0833
  -7.240  -0.0623   0.01503   0.00963  -0.1900  0.3505  0.0147  -5.2426   0.0000   0.0000   0.0000  -3.1441
  -7.230  -0.0611   0.01502   0.00962  -0.1900  0.3505  0.0147  -5.2341   0.0000   0.0000   0.0000  -3.2073
  -7.220  -0.0599   0.01501   0.00961  -0.1899  0.3505  0.0147  -5.2255   0.0000   0.0000   0.0000  -3.2729
  -7.210  -0.0588   0.01499   0.00960  -0.1899  0.3505  0.0147  -5.2170   0.0000   0.0000   0.0000  -3.3413
  -7.200  -0.0576   0.01498   0.00958  -0.1898  0.3505  0.0147  -5.2085   0.0000   0.0000   0.0000  -3.4124
  -7.190  -0.0564   0.01497   0.00957  -0.1898  0.3504  0.0147  -5.2000   0.0000   0.0000   0.0000  -3.4865
  -7.180  -0.0553   0.01497   0.00956  -0.1898  0.3504  0.0147  -5.1914   0.0000   0.0000   0.0000  -3.5638
  -7.170  -0.0541   0.01496   0.00955  -0.1897  0.3504  0.0147  -5.1829   0.0000   0.0000   0.0000  -3.6445
  -7.160  -0.0529   0.01495   0.00954  -0.1897  0.3504  0.0148  -5.1744   0.0000   0.0000   0.0000  -3.7288
  -7.150  -0.0518   0.01494   0.00952  -0.1896  0.3504  0.0148  -5.1659   0.0000   0.0000   0.0000  -3.8170
  -7.140  -0.0506   0.01493   0.00951  -0.1896  0.3504  0.0148  -5.1574   0.0000   0.0000   0.0000  -3.9093
  -7.130  -0.0494   0.01492   0.00950  -0.1896  0.3504  0.0148  -5.1489   0.0000   0.0000   0.0000  -4.0060
  -7.120  -0.0483   0.01491   0.00949  -0.1895  0.3503  0.0148  -5.1404   0.0000   0.0000   0.0000  -4.1075
  -7.110  -0.0471   0.01490   0.00948  -0.1895  0.3503  0.0148  -5.1320   0.0000   0.0000   0.0000  -4.2141
  -7.100  -0.0459   0.01489   0.00947  -0.1894  0.3503  0.0148  -5.1235   0.0000   0.0000   0.0000  -4.3261
  -7.090  -0.0448   0.01488   0.00946  -0.1894  0.3503  0.0148  -5.1150   0.0000   0.0000   0.0000  -4.4441
  -7.080  -0.0436   0.01487   0.00945  -0.1893  0.3503  0.0148  -5.1065   0.0000   0.0000   0.0000  -4.5685
  -7.070  -0.0424   0.01486   0.00944  -0.1893  0.3503  0.0148  -5.0981   0.0000   0.0000   0.0000  -4.6999
  -7.060  -0.0412   0.01485   0.00942  -0.1893  0.3503  0.0148  -5.0896   0.0000   0.0000   0.0000  -4.8388
  -7.050  -0.0401   0.01484   0.00941  -0.1892  0.3502  0.0148  -5.0812   0.0000   0.0000   0.0000  -4.9858
  -7.040  -0.0389   0.01483   0.00940  -0.1892  0.3502  0.0148  -5.0727   0.0000   0.0000   0.0000  -5.1419
  -7.030  -0.0377   0.01482   0.00939  -0.1891  0.3502  0.0148  -5.0643   0.0000   0.0000   0.0000  -5.3077
  -7.020  -0.0365   0.01481   0.00938  -0.1891  0.3502  0.0148  -5.0559   0.0000   0.0000   0.0000  -5.4842
  -7.010  -0.0354   0.01481   0.00937  -0.1890  0.3502  0.0148  -5.0474   0.0000   0.0000   0.0000  -5.6725
  -7.000  -0.0342   0.01480   0.00936  -0.1890  0.3502  0.0148  -5.0390   0.0000   0.0000   0.0000  -5.8732
  -6.990  -0.0330   0.01479   0.00935  -0.1890  0.3501  0.0148  -5.0307   0.0000   0.0000   0.0000  -6.0873
  -6.980  -0.0319   0.01478   0.00934  -0.1889  0.3501  0.0148  -5.0223   0.0000   0.0000   0.0000  -6.3164
  -6.970  -0.0307   0.01477   0.00933  -0.1889  0.3501  0.0148  -5.0139   0.0000   0.0000   0.0000  -6.5619
  -6.960  -0.0295   0.01476   0.00932  -0.1888  0.3501  0.0148  -5.0056   0.0000   0.0000   0.0000  -6.8258
  -6.950  -0.0284   0.01475   0.00931  -0.1888  0.3501  0.0148  -4.9973   0.0000   0.0000   0.0000  -7.1102
  -6.940  -0.0272   0.01475   0.00930  -0.1887  0.3501  0.0148  -4.9890   0.0000   0.0000   0.0000  -7.4176
  -6.930  -0.0261   0.01474   0.00929  -0.1887  0.3501  0.0149  -4.9808   0.0000   0.0000   0.0000  -7.7510
  -6.920  -0.0250   0.01473   0.00928  -0.1886  0.3500  0.0149  -4.9725   0.0000   0.0000   0.0000  -8.1136
  -6.910  -0.0238   0.01472   0.00927  -0.1886  0.3500  0.0149  -4.9643   0.0000   0.0000   0.0000  -8.5100
  -6.900  -0.0227   0.01471   0.00926  -0.1885  0.3500  0.0149  -4.9561   0.0000   0.0000   0.0000  -8.9450
  -6.890  -0.0215   0.01471   0.00925  -0.1885  0.3500  0.0149  -4.9479   0.0000   0.0000   0.0000  -9.4247
  -6.880  -0.0204   0.01470   0.00924  -0.1885  0.3500  0.0149  -4.9397   0.0000   0.0000   0.0000  -9.9564
  -6.870  -0.0193   0.01469   0.00923  -0.1884  0.3500  0.0149  -4.9316   0.0000   0.0000   0.0000  -10.5493
  -6.860  -0.0182   0.01468   0.00923  -0.1884  0.3500  0.0149  -4.9234   0.0000   0.0000   0.0000  -11.2147
  -6.850  -0.0170   0.01468   0.00922  -0.1883  0.3499  0.0149  -4.9153   0.0000   0.0000   0.0000  -11.9671
  -6.840  -0.0159   0.01467   0.00921  -0.1883  0.3499  0.0149  -4.9072   0.0000   0.0000   0.0000  -12.8249
  -6.830  -0.0148   0.01466   0.00920  -0.1882  0.3499  0.0149  -4.8991   0.0000   0.0000   0.0000  -13.8124
  -6.820  -0.0137   0.01466   0.00919  -0.1882  0.3499  0.0149  -4.8910   0.0000   0.0000   0.0000  -14.9617
  -6.810  -0.0125   0.01465   0.00918  -0.1881  0.3499  0.0149  -4.8829   0.0000   0.0000   0.0000  -16.3164
  -6.800  -0.0114   0.01464   0.00917  -0.1881  0.3499  0.0149  -4.8748   0.0000   0.0000   0.0000  -17.9374
  -6.790  -0.0103   0.01464   0.00916  -0.1880  0.3498  0.0149  -4.8667   0.0000   0.0000   0.0000  -19.9123
  -6.780  -0.0092   0.01463   0.00916  -0.1880  0.3498  0.0149  -4.8586   0.0000   0.0000   0.0000  -22.3718
  -6.770  -0.0080   0.01462   0.00915  -0.1879  0.3498  0.0149  -4.8506   0.0000   0.0000   0.0000  -25.5198
  -6.760  -0.0069   0.01461   0.00914  -0.1879  0.3498  0.0149  -4.8425   0.0000   0.0000   0.0000  -29.6932
  -6.750  -0.0058   0.01461   0.00913  -0.1878  0.3498  0.0149  -4.8345   0.0000   0.0000   0.0000  -35.4627
  -6.740  -0.0047   0.01460   0.00912  -0.1878  0.3498  0.0150  -4.8264   0.0000   0.0000   0.0000  -44.0041
  -6.730  -0.0036   0.01459   0.00912  -0.1877  0.3498  0.0150  -4.8184   0.0000   0.0000   0.0000  -57.9515
  -6.720  -0.0024   0.01459   0.00911  -0.1877  0.3497  0.0150  -4.8104   0.0000   0.0000   0.0000  -84.8174
  -6.710  -0.0013   0.01458   0.00910  -0.1876  0.3497  0.0150  -4.8023   0.0000   0.0000   0.0000  -158.0394
  -6.700  -0.0002   0.01457   0.00909  -0.1876  0.3497  0.0150  -4.7943   0.0000   0.0000   0.0000  -1151.9696
  -6.690   0.0009   0.01457   0.00908  -0.1875  0.3497  0.0150  -4.7863   0.0000   0.0000   0.0000  217.9352
  -6.680   0.0021   0.01456   0.00908  -0.1875  0.3497  0.0150  -4.7783   0.0000   0.0000   0.0000  99.5784
  -6.670   0.0032   0.01456   0.00907  -0.1874  0.3497  0.0150  -4.7702   0.0000   0.0000   0.0000  64.5432
  -6.660   0.0043   0.01455   0.00906  -0.1874  0.3496  0.0150  -4.7622   0.0000   0.0000   0.0000  47.7513
  -6.650   0.0055   0.01454   0.00905  -0.1873  0.3496  0.0150  -4.7542   0.0000   0.0000   0.0000  37.8969
  -6.640   0.0066   0.01454   0.00904  -0.1873  0.3496  0.0150  -4.7462   0.0000   0.0000   0.0000  31.4171
  -6.630   0.0078   0.01453   0.00904  -0.1872  0.3496  0.0150  -4.7382   0.0000   0.0000   0.0000  26.8319
  -6.620   0.0089   0.01452   0.00903  -0.1872  0.3496  0.0150  -4.7302   0.0000   0.0000   0.0000  23.4164
  -6.610   0.0100   0.01452   0.00902  -0.1871  0.3496  0.0150  -4.7222   0.0000   0.0000   0.0000  20.7738
  -6.600   0.0112   0.01451   0.00901  -0.1871  0.3496  0.0150  -4.7142   0.0000   0.0000   0.0000  18.6684
  -6.590   0.0123   0.01451   0.00901  -0.1870  0.3495  0.0150  -4.7062   0.0000   0.0000   0.0000  16.9516
  -6.580   0.0135   0.01450   0.00900  -0.1870  0.3495  0.0150  -4.6982   0.0000   0.0000   0.0000  15.5250
  -6.570   0.0146   0.01449   0.00899  -0.1869  0.3495  0.0150  -4.6902   0.0000   0.0000   0.0000  14.3207
  -6.560   0.0158   0.01449   0.00898  -0.1869  0.3495  0.0150  -4.6822   0.0000   0.0000   0.0000  13.2905
  -6.550   0.0169   0.01448   0.00897  -0.1868  0.3495  0.0151  -4.6743   0.0000   0.0000   0.0000  12.3994
  -6.540   0.0181   0.01447   0.00897  -0.1868  0.3495  0.0151  -4.6663   0.0000   0.0000   0.0000  11.6208
  -6.530   0.0192   0.01447   0.00896  -0.1867  0.3494  0.0151  -4.6583   0.0000   0.0000   0.0000  10.9349
  -6.520   0.0204   0.01446   0.00895  -0.1867  0.3494  0.0151  -4.6504   0.0000   0.0000   0.0000  10.3260
  -6.510   0.0215   0.01446   0.00895  -0.1866  0.3494  0.0151  -4.6424   0.0000   0.0000   0.0000   9.7819
  -6.500   0.0227   0.01445   0.00894  -0.1866  0.3494  0.0151  -4.6344   0.0000   0.0000   0.0000   9.2927
  -6.490   0.0238   0.01444   0.00893  -0.1866  0.3494  0.0151  -4.6265   0.0000   0.0000   0.0000   8.8505
  -6.480   0.0250   0.01444   0.00892  -0.1865  0.3494  0.0151  -4.6185   0.0000   0.0000   0.0000   8.4490
  -6.470   0.0261   0.01443   0.00892  -0.1865  0.3494  0.0151  -4.6106   0.0000   0.0000   0.0000   8.0827
  -6.460   0.0273   0.01443   0.00891  -0.1864  0.3493  0.0151  -4.6027   0.0000   0.0000   0.0000   7.7472
  -6.450   0.0285   0.01442   0.00890  -0.1864  0.3493  0.0151  -4.5947   0.0000   0.0000   0.0000   7.4388
  -6.440   0.0296   0.01442   0.00889  -0.1863  0.3493  0.0151  -4.5868   0.0000   0.0000   0.0000   7.1544
  -6.430   0.0308   0.01441   0.00889  -0.1863  0.3493  0.0151  -4.5789   0.0000   0.0000   0.0000   6.8912
  -6.420   0.0320   0.01440   0.00888  -0.1862  0.3493  0.0151  -4.5710   0.0000   0.0000   0.0000   6.6471
  -6.410   0.0331   0.01440   0.00887  -0.1862  0.3493  0.0151  -4.5631   0.0000   0.0000   0.0000   6.4199
  -6.400   0.0343   0.01439   0.00887  -0.1861  0.3492  0.0151  -4.5552   0.0000   0.0000   0.0000   6.2080
  -6.390   0.0354   0.01439   0.00886  -0.1861  0.3492  0.0151  -4.5473   0.0000   0.0000   0.0000   6.0099
  -6.380   0.0366   0.01438   0.00885  -0.1861  0.3492  0.0151  -4.5394   0.0000   0.0000   0.0000   5.8244
  -6.370   0.0378   0.01438   0.00884  -0.1860  0.3492  0.0152  -4.5315   0.0000   0.0000   0.0000   5.6502
  -6.360   0.0389   0.01437   0.00884  -0.1860  0.3492  0.0152  -4.5236   0.0000   0.0000   0.0000   5.4863
  -6.350   0.0401   0.01436   0.00883  -0.1859  0.3492  0.0152  -4.5157   0.0000   0.0000   0.0000   5.3319
  -6.340   0.0413   0.01436   0.00882  -0.1859  0.3492  0.0152  -4.5079   0.0000   0.0000   0.0000   5.1862
  -6.330   0.0424   0.01435   0.00882  -0.1858  0.3491  0.0152  -4.5000   0.0000   0.0000   0.0000   5.0485
  -6.320   0.0436   0.01435   0.00881  -0.1858  0.3491  0.0152  -4.4921   0.0000   0.0000   0.0000   4.9180
  -6.310   0.0448   0.01434   0.00880  -0.1857  0.3491  0.0152  -4.4843   0.0000   0.0000   0.0000   4.7943
  -6.300   0.0459   0.01434   0.00880  -0.1857  0.3491  0.0152  -4.4765   0.0000   0.0000   0.0000   4.6769
  -6.290   0.0471   0.01433   0.00879  -0.1857  0.3491  0.0152  -4.4686   0.0000   0.0000   0.0000   4.5653
  -6.280   0.0483   0.01433   0.00878  -0.1856  0.3491  0.0152  -4.4608   0.0000   0.0000   0.0000   4.4590
  -6.270   0.0495   0.01432   0.00878  -0.1856  0.3490  0.0152  -4.4530   0.0000   0.0000   0.0000   4.3578
  -6.260   0.0506   0.01432   0.00877  -0.1855  0.3490  0.0152  -4.4452   0.0000   0.0000   0.0000   4.2612
  -6.250   0.0518   0.01431   0.00876  -0.1855  0.3490  0.0152  -4.4374   0.0000   0.0000   0.0000   4.1689
  -6.240   0.0530   0.01431   0.00876  -0.1854  0.3490  0.0152  -4.4296   0.0000   0.0000   0.0000   4.0807
  -6.230   0.0541   0.01430   0.00875  -0.1854  0.3490  0.0152  -4.4218   0.0000   0.0000   0.0000   3.9963
  -6.220   0.0553   0.01430   0.00875  -0.1854  0.3490  0.0152  -4.4140   0.0000   0.0000   0.0000   3.9155
  -6.210   0.0565   0.01429   0.00874  -0.1853  0.3489  0.0152  -4.4062   0.0000   0.0000   0.0000   3.8380
  -6.200   0.0577   0.01429   0.00873  -0.1853  0.3489  0.0152  -4.3984   0.0000   0.0000   0.0000   3.7637
  -6.190   0.0588   0.01428   0.00873  -0.1852  0.3489  0.0152  -4.3907   0.0000   0.0000   0.0000   3.6923
  -6.180   0.0600   0.01428   0.00872  -0.1852  0.3489  0.0153  -4.3829   0.0000   0.0000   0.0000   3.6236
  -6.170   0.0612   0.01427   0.00871  -0.1851  0.3489  0.0153  -4.3752   0.0000   0.0000   0.0000   3.5576
  -6.160   0.0624   0.01427   0.00871  -0.1851  0.3489  0.0153  -4.3674   0.0000   0.0000   0.0000   3.4941
  -6.150   0.0635   0.01426   0.00870  -0.1850  0.3489  0.0153  -4.3597   0.0000   0.0000   0.0000   3.4329
  -6.140   0.0647   0.01426   0.00870  -0.1850  0.3488  0.0153  -4.3520   0.0000   0.0000   0.0000   3.3740
  -6.130   0.0659   0.01425   0.00869  -0.1850  0.3488  0.0153  -4.3443   0.0000   0.0000   0.0000   3.3171
  -6.120   0.0670   0.01425   0.00868  -0.1849  0.3488  0.0153  -4.3366   0.0000   0.0000   0.0000   3.2622
  -6.110   0.0682   0.01424   0.00868  -0.1849  0.3488  0.0153  -4.3289   0.0000   0.0000   0.0000   3.2092
  -6.100   0.0694   0.01424   0.00867  -0.1848  0.3488  0.0153  -4.3212   0.0000   0.0000   0.0000   3.1580
  -6.090   0.0706   0.01424   0.00867  -0.1848  0.3488  0.0153  -4.3135   0.0000   0.0000   0.0000   3.1085
  -6.080   0.0717   0.01423   0.00866  -0.1847  0.3487  0.0153  -4.3058   0.0000   0.0000   0.0000   3.0606
  -6.070   0.0729   0.01423   0.00866  -0.1847  0.3487  0.0153  -4.2981   0.0000   0.0000   0.0000   3.0143
  -6.060   0.0741   0.01422   0.00865  -0.1847  0.3487  0.0153  -4.2905   0.0000   0.0000   0.0000   2.9695
  -6.050   0.0753   0.01422   0.00864  -0.1846  0.3487  0.0153  -4.2828   0.0000   0.0000   0.0000   2.9262
  -6.040   0.0764   0.01421   0.00864  -0.1846  0.3487  0.0153  -4.2752   0.0000   0.0000   0.0000   2.8844
  -6.030   0.0776   0.01421   0.00863  -0.1845  0.3487  0.0153  -4.2676   0.0000   0.0000   0.0000   2.8440
  -6.020   0.0787   0.01421   0.00863  -0.1845  0.3486  0.0153  -4.2601   0.0000   0.0000   0.0000   2.8049
  -6.010   0.0799   0.01420   0.00862  -0.1844  0.3486  0.0153  -4.2525   0.0000   0.0000   0.0000   2.7671
  -6.000   0.0810   0.01420   0.00862  -0.1844  0.3486  0.0153  -4.2450   0.0000   0.0000   0.0000   2.7304
  -5.990   0.0822   0.01419   0.00861  -0.1843  0.3486  0.0153  -4.2375   0.0000   0.0000   0.0000   2.6950
  -5.980   0.0833   0.01419   0.00861  -0.1843  0.3486  0.0153  -4.2300   0.0000   0.0000   0.0000   2.6606
  -5.970   0.0844   0.01419   0.00860  -0.1842  0.3486  0.0153  -4.2226   0.0000   0.0000   0.0000   2.6273
  -5.960   0.0856   0.01418   0.00860  -0.1842  0.3486  0.0153  -4.2151   0.0000   0.0000   0.0000   2.5949
  -5.950   0.0867   0.01418   0.00860  -0.1841  0.3485  0.0154  -4.2077   0.0000   0.0000   0.0000   2.5635
  -5.940   0.0878   0.01418   0.00859  -0.1841  0.3485  0.0154  -4.2003   0.0000   0.0000   0.0000   2.5329
  -5.930   0.0889   0.01417   0.00859  -0.1840  0.3485  0.0154  -4.1929   0.0000   0.0000   0.0000   2.5032
  -5.920   0.0900   0.01417   0.00858  -0.1840  0.3485  0.0154  -4.1855   0.0000   0.0000   0.0000   2.4743
  -5.910   0.0912   0.01417   0.00858  -0.1839  0.3485  0.0154  -4.1782   0.0000   0.0000   0.0000   2.4461
  -5.900   0.0923   0.01416   0.00857  -0.1839  0.3485  0.0154  -4.1708   0.0000   0.0000   0.0000   2.4187
  -5.890   0.0934   0.01416   0.00857  -0.1838  0.3484  0.0154  -4.1635   0.0000   0.0000   0.0000   2.3920
  -5.880   0.0945   0.01416   0.00857  -0.1838  0.3484  0.0154  -4.1561   0.0000   0.0000   0.0000   2.3659
  -5.870   0.0956   0.01416   0.00856  -0.1837  0.3484  0.0154  -4.1488   0.0000   0.0000   0.0000   2.3404
  -5.860   0.0967   0.01415   0.00856  -0.1837  0.3484  0.0154  -4.1415   0.0000   0.0000   0.0000   2.3155
  -5.850   0.0978   0.01415   0.00856  -0.1836  0.3484  0.0154  -4.1342   0.0000   0.0000   0.0000   2.2912
  -5.840   0.0989   0.01415   0.00855  -0.1836  0.3484  0.0154  -4.1269   0.0000   0.0000   0.0000   2.2674
  -5.830   0.1000   0.01415   0.00855  -0.1835  0.3484  0.0154  -4.1196   0.0000   0.0000   0.0000   2.2441
  -5.820   0.1011   0.01414   0.00854  -0.1835  0.3483  0.0154  -4.1124   0.0000   0.0000   0.0000   2.2214
  -5.810   0.1022   0.01414   0.00854  -0.1834  0.3483  0.0154  -4.1051   0.0000   0.0000   0.0000   2.1992
  -5.800   0.1033   0.01414   0.00854  -0.1834  0.3483  0.0154  -4.0979   0.0000   0.0000   0.0000   2.1775
  -5.790   0.1045   0.01414   0.00853  -0.1833  0.3483  0.0154  -4.0906   0.0000   0.0000   0.0000   2.1562
  -5.780   0.1056   0.01413   0.00853  -0.1833  0.3483  0.0154  -4.0834   0.0000   0.0000   0.0000   2.1354
  -5.770   0.1067   0.01413   0.00853  -0.1832  0.3483  0.0154  -4.0761   0.0000   0.0000   0.0000   2.1149
  -5.760   0.1078   0.01413   0.00852  -0.1832  0.3482  0.0154  -4.0689   0.0000   0.0000   0.0000   2.0949
  -5.750   0.1089   0.01413   0.00852  -0.1831  0.3482  0.0154  -4.0616   0.0000   0.0000   0.0000   2.0752
  -5.740   0.1100   0.01412   0.00852  -0.1831  0.3482  0.0154  -4.0544   0.0000   0.0000   0.0000   2.0559
  -5.730   0.1111   0.01412   0.00851  -0.1830  0.3482  0.0154  -4.0472   0.0000   0.0000   0.0000   2.0370
  -5.720   0.1122   0.01412   0.00851  -0.1830  0.3482  0.0154  -4.0400   0.0000   0.0000   0.0000   2.0185
  -5.710   0.1134   0.01412   0.00851  -0.1829  0.3482  0.0154  -4.0327   0.0000   0.0000   0.0000   2.0002
  -5.700   0.1145   0.01411   0.00850  -0.1829  0.3482  0.0154  -4.0255   0.0000   0.0000   0.0000   1.9824
  -5.690   0.1156   0.01411   0.00850  -0.1828  0.3481  0.0154  -4.0183   0.0000   0.0000   0.0000   1.9648
  -5.680   0.1167   0.01411   0.00850  -0.1828  0.3481  0.0154  -4.0111   0.0000   0.0000   0.0000   1.9476
  -5.670   0.1178   0.01411   0.00849  -0.1827  0.3481  0.0154  -4.0039   0.0000   0.0000   0.0000   1.9306
  -5.660   0.1190   0.01410   0.00849  -0.1827  0.3481  0.0154  -3.9967   0.0000   0.0000   0.0000   1.9140
  -5.650   0.1201   0.01410   0.00849  -0.1826  0.3481  0.0154  -3.9895   0.0000   0.0000   0.0000   1.8977
  -5.640   0.1212   0.01410   0.00848  -0.1826  0.3481  0.0154  -3.9823   0.0000   0.0000   0.0000   1.8817
  -5.630   0.1224   0.01410   0.00848  -0.1825  0.3480  0.0154  -3.9751   0.0000   0.0000   0.0000   1.8659
  -5.620   0.1235   0.01410   0.00847  -0.1825  0.3480  0.0154  -3.9679   0.0000   0.0000   0.0000   1.8504
  -5.610   0.1246   0.01409   0.00847  -0.1824  0.3480  0.0154  -3.9607   0.0000   0.0000   0.0000   1.8352
  -5.600   0.1257   0.01409   0.00847  -0.1824  0.3480  0.0154  -3.9535   0.0000   0.0000   0.0000   1.8203
  -5.590   0.1269   0.01409   0.00846  -0.1823  0.3480  0.0154  -3.9463   0.0000   0.0000   0.0000   1.8056
  -5.580   0.1280   0.01409   0.00846  -0.1823  0.3480  0.0154  -3.9392   0.0000   0.0000   0.0000   1.7911
  -5.570   0.1292   0.01408   0.00846  -0.1822  0.3480  0.0154  -3.9320   0.0000   0.0000   0.0000   1.7769
  -5.560   0.1303   0.01408   0.00846  -0.1822  0.3479  0.0155  -3.9248   0.0000   0.0000   0.0000   1.7630
  -5.550   0.1314   0.01408   0.00845  -0.1821  0.3479  0.0155  -3.9177   0.0000   0.0000   0.0000   1.7492
  -5.540   0.1326   0.01408   0.00845  -0.1821  0.3479  0.0155  -3.9105   0.0000   0.0000   0.0000   1.7357
  -5.530   0.1337   0.01408   0.00845  -0.1820  0.3479  0.0155  -3.9034   0.0000   0.0000   0.0000   1.7224
  -5.520   0.1348   0.01407   0.00844  -0.1820  0.3479  0.0155  -3.8962   0.0000   0.0000   0.0000   1.7094
  -5.510   0.1360   0.01407   0.00844  -0.1819  0.3479  0.0155  -3.8891   0.0000   0.0000   0.0000   1.6965
  -5.500   0.1371   0.01407   0.00844  -0.1819  0.3478  0.0155  -3.8819   0.0000   0.0000   0.0000   1.6839
  -5.490   0.1383   0.01407   0.00843  -0.1818  0.3478  0.0155  -3.8748   0.0000   0.0000   0.0000   1.6714
  -5.480   0.1394   0.01406   0.00843  -0.1818  0.3478  0.0155  -3.8677   0.0000   0.0000   0.0000   1.6592
  -5.470   0.1405   0.01406   0.00843  -0.1817  0.3478  0.0155  -3.8606   0.0000   0.0000   0.0000   1.6471
  -5.460   0.1417   0.01406   0.00842  -0.1817  0.3478  0.0155  -3.8534   0.0000   0.0000   0.0000   1.6353
  -5.450   0.1428   0.01406   0.00842  -0.1817  0.3478  0.0155  -3.8463   0.0000   0.0000   0.0000   1.6236
  -5.440   0.1440   0.01406   0.00842  -0.1816  0.3477  0.0155  -3.8392   0.0000   0.0000   0.0000   1.6121
  -5.430   0.1451   0.01405   0.00841  -0.1816  0.3477  0.0155  -3.8321   0.0000   0.0000   0.0000   1.6008
  -5.420   0.1463   0.01405   0.00841  -0.1815  0.3477  0.0155  -3.8251   0.0000   0.0000   0.0000   1.5896
  -5.410   0.1474   0.01405   0.00841  -0.1815  0.3477  0.0155  -3.8180   0.0000   0.0000   0.0000   1.5787
  -5.400   0.1486   0.01405   0.00841  -0.1814  0.3477  0.0155  -3.8109   0.0000   0.0000   0.0000   1.5679
  -5.390   0.1497   0.01405   0.00840  -0.1814  0.3477  0.0155  -3.8038   0.0000   0.0000   0.0000   1.5572
  -5.380   0.1509   0.01405   0.00840  -0.1813  0.3477  0.0155  -3.7968   0.0000   0.0000   0.0000   1.5467
  -5.370   0.1520   0.01404   0.00840  -0.1813  0.3476  0.0155  -3.7897   0.0000   0.0000   0.0000   1.5364
  -5.360   0.1531   0.01404   0.00839  -0.1812  0.3476  0.0155  -3.7827   0.0000   0.0000   0.0000   1.5262
  -5.350   0.1543   0.01404   0.00839  -0.1812  0.3476  0.0155  -3.7756   0.0000   0.0000   0.0000   1.5162
  -5.340   0.1554   0.01404   0.00839  -0.1812  0.3476  0.0155  -3.7686   0.0000   0.0000   0.0000   1.5063
  -5.330   0.1566   0.01404   0.00839  -0.1811  0.3476  0.0155  -3.7615   0.0000   0.0000   0.0000   1.4966
  -5.320   0.1577   0.01403   0.00838  -0.1811  0.3476  0.0155  -3.7545   0.0000   0.0000   0.0000   1.4870
  -5.310   0.1589   0.01403   0.00838  -0.1810  0.3475  0.0155  -3.7475   0.0000   0.0000   0.0000   1.4775
  -5.300   0.1600   0.01403   0.00838  -0.1810  0.3475  0.0155  -3.7405   0.0000   0.0000   0.0000   1.4682
  -5.290   0.1612   0.01403   0.00838  -0.1809  0.3475  0.0155  -3.7334   0.0000   0.0000   0.0000   1.4590
  -5.280   0.1623   0.01403   0.00837  -0.1809  0.3475  0.0155  -3.7264   0.0000   0.0000   0.0000   1.4500
  -5.270   0.1635   0.01403   0.00837  -0.1808  0.3475  0.0155  -3.7194   0.0000   0.0000   0.0000   1.4411
  -5.260   0.1646   0.01402   0.00837  -0.1808  0.3475  0.0155  -3.7125   0.0000   0.0000   0.0000   1.4323
  -5.250   0.1658   0.01402   0.00837  -0.1808  0.3475  0.0155  -3.7055   0.0000   0.0000   0.0000   1.4236
  -5.240   0.1669   0.01402   0.00836  -0.1807  0.3474  0.0155  -3.6985   0.0000   0.0000   0.0000   1.4150
  -5.230   0.1681   0.01402   0.00836  -0.1807  0.3474  0.0155  -3.6915   0.0000   0.0000   0.0000   1.4066
  -5.220   0.1692   0.01402   0.00836  -0.1806  0.3474  0.0155  -3.6846   0.0000   0.0000   0.0000   1.3982
  -5.210   0.1704   0.01402   0.00836  -0.1806  0.3474  0.0155  -3.6776   0.0000   0.0000   0.0000   1.3900
  -5.200   0.1715   0.01402   0.00835  -0.1805  0.3474  0.0155  -3.6707   0.0000   0.0000   0.0000   1.3819
  -5.190   0.1727   0.01401   0.00835  -0.1805  0.3474  0.0156  -3.6637   0.0000   0.0000   0.0000   1.3739
  -5.180   0.1738   0.01401   0.00835  -0.1804  0.3473  0.0156  -3.6568   0.0000   0.0000   0.0000   1.3660
  -5.170   0.1750   0.01401   0.00835  -0.1804  0.3473  0.0156  -3.6499   0.0000   0.0000   0.0000   1.3582
  -5.160   0.1761   0.01401   0.00834  -0.1803  0.3473  0.0156  -3.6430   0.0000   0.0000   0.0000   1.3505
  -5.150   0.1773   0.01401   0.00834  -0.1803  0.3473  0.0156  -3.6362   0.0000   0.0000   0.0000   1.3430
  -5.140   0.1784   0.01401   0.00834  -0.1803  0.3473  0.0156  -3.6295   0.0000   0.0000   0.0000   1.3355
  -5.130   0.1796   0.01401   0.00834  -0.1802  0.3473  0.0156  -3.6229   0.0000   0.0000   0.0000   1.3281
  -5.120   0.1807   0.01400   0.00834  -0.1802  0.3473  0.0156  -3.6162   0.0000   0.0000   0.0000   1.3208
  -5.110   0.1818   0.01400   0.00833  -0.1801  0.3472  0.0156  -3.6096   0.0000   0.0000   0.0000   1.3136
  -5.100   0.1830   0.01400   0.00833  -0.1801  0.3472  0.0156  -3.6030   0.0000   0.0000   0.0000   1.3066
  -5.090   0.1841   0.01400   0.00833  -0.1800  0.3472  0.0156  -3.5964   0.0000   0.0000   0.0000   1.2997
  -5.080   0.1852   0.01400   0.00833  -0.1800  0.3472  0.0156  -3.5898   0.0000   0.0000   0.0000   1.2929
  -5.070   0.1863   0.01400   0.00833  -0.1799  0.3472  0.0156  -3.5833   0.0000   0.0000   0.0000   1.2862
  -5.060   0.1874   0.01400   0.00833  -0.1799  0.3472  0.0156  -3.5768   0.0000   0.0000   0.0000   1.2796
  -5.050   0.1885   0.01400   0.00833  -0.1798  0.3471  0.0156  -3.5703   0.0000   0.0000   0.0000   1.2731
  -5.040   0.1896   0.01400   0.00832  -0.1798  0.3471  0.0156  -3.5638   0.0000   0.0000   0.0000   1.2667
  -5.030   0.1907   0.01400   0.00832  -0.1797  0.3471  0.0156  -3.5573   0.0000   0.0000   0.0000   1.2604
  -5.020   0.1918   0.01400   0.00832  -0.1797  0.3471  0.0156  -3.5509   0.0000   0.0000   0.0000   1.2542
  -5.010   0.1929   0.01400   0.00832  -0.1796  0.3471  0.0156  -3.5445   0.0000   0.0000   0.0000   1.2480
  -5.000   0.1940   0.01400   0.00832  -0.1796  0.3471  0.0156  -3.5380   0.0000   0.0000   0.0000   1.2420
  -4.990   0.1951   0.01400   0.00832  -0.1795  0.3471  0.0156  -3.5317   0.0000   0.0000   0.0000   1.2360
  -4.980   0.1962   0.01400   0.00832  -0.1795  0.3470  0.0156  -3.5253   0.0000   0.0000   0.0000   1.2302
  -4.970   0.1972   0.01400   0.00832  -0.1794  0.3470  0.0156  -3.5189   0.0000   0.0000   0.0000   1.2244
  -4.960   0.1983   0.01400   0.00832  -0.1794  0.3470  0.0156  -3.5125   0.0000   0.0000   0.0000   1.2186
  -4.950   0.1994   0.01400   0.00832  -0.1793  0.3470  0.0156  -3.5062   0.0000   0.0000   0.0000   1.2129
  -4.940   0.2005   0.01400   0.00832  -0.1793  0.3470  0.0156  -3.4998   0.0000   0.0000   0.0000   1.2073
  -4.930   0.2015   0.01400   0.00832  -0.1792  0.3470  0.0156  -3.4935   0.0000   0.0000   0.0000   1.2018
  -4.920   0.2026   0.01400   0.00832  -0.1791  0.3470  0.0157  -3.4872   0.0000   0.0000   0.0000   1.1963
  -4.910   0.2037   0.01400   0.00832  -0.1791  0.3469  0.0157  -3.4809   0.0000   0.0000   0.0000   1.1909
  -4.900   0.2047   0.01400   0.00832  -0.1790  0.3469  0.0157  -3.4745   0.0000   0.0000   0.0000   1.1855
  -4.890   0.2058   0.01401   0.00832  -0.1790  0.3469  0.0157  -3.4682   0.0000   0.0000   0.0000   1.1802
  -4.880   0.2069   0.01401   0.00832  -0.1789  0.3469  0.0157  -3.4619   0.0000   0.0000   0.0000   1.1750
  -4.870   0.2079   0.01401   0.00832  -0.1789  0.3469  0.0157  -3.4557   0.0000   0.0000   0.0000   1.1698
  -4.860   0.2090   0.01401   0.00832  -0.1788  0.3469  0.0157  -3.4494   0.0000   0.0000   0.0000   1.1646
  -4.850   0.2101   0.01401   0.00832  -0.1788  0.3468  0.0157  -3.4431   0.0000   0.0000   0.0000   1.1595
  -4.840   0.2112   0.01401   0.00832  -0.1787  0.3468  0.0157  -3.4368   0.0000   0.0000   0.0000   1.1545
  -4.830   0.2122   0.01401   0.00832  -0.1787  0.3468  0.0157  -3.4305   0.0000   0.0000   0.0000   1.1495
  -4.820   0.2133   0.01401   0.00832  -0.1786  0.3468  0.0157  -3.4242   0.0000   0.0000   0.0000   1.1445
  -4.810   0.2144   0.01401   0.00832  -0.1786  0.3468  0.0157  -3.4179   0.0000   0.0000   0.0000   1.1396
  -4.800   0.2155   0.01401   0.00832  -0.1785  0.3468  0.0157  -3.4116   0.0000   0.0000   0.0000   1.1347
  -4.790   0.2166   0.01401   0.00832  -0.1784  0.3468  0.0157  -3.4054   0.0000   0.0000   0.0000   1.1298
  -4.780   0.2177   0.01401   0.00832  -0.1784  0.3467  0.0157  -3.3991   0.0000   0.0000   0.0000   1.1251
  -4.770   0.2187   0.01401   0.00832  -0.1783  0.3467  0.0157  -3.3928   0.0000   0.0000   0.0000   1.1203
  -4.760   0.2198   0.01401   0.00832  -0.1783  0.3467  0.0157  -3.3865   0.0000   0.0000   0.0000   1.1156
  -4.750   0.2209   0.01402   0.00832  -0.1782  0.3467  0.0157  -3.3803   0.0000   0.0000   0.0000   1.1109
  -4.740   0.2220   0.01402   0.00832  -0.1782  0.3467  0.0157  -3.3740   0.0000   0.0000   0.0000   1.1063
  -4.730   0.2231   0.01402   0.00832  -0.1781  0.3467  0.0157  -3.3677   0.0000   0.0000   0.0000   1.1017
  -4.720   0.2242   0.01402   0.00832  -0.1781  0.3466  0.0157  -3.3615   0.0000   0.0000   0.0000   1.0972
  -4.710   0.2253   0.01402   0.00832  -0.1780  0.3466  0.0157  -3.3552   0.0000   0.0000   0.0000   1.0926
  -4.700   0.2264   0.01402   0.00832  -0.1780  0.3466  0.0157  -3.3489   0.0000   0.0000   0.0000   1.0882
  -4.690   0.2275   0.01402   0.00832  -0.1779  0.3466  0.0157  -3.3427   0.0000   0.0000   0.0000   1.0837
  -4.680   0.2286   0.01402   0.00832  -0.1779  0.3466  0.0158  -3.3364   0.0000   0.0000   0.0000   1.0794
  -4.670   0.2297   0.01402   0.00832  -0.1778  0.3466  0.0158  -3.3302   0.0000   0.0000   0.0000   1.0750
  -4.660   0.2308   0.01402   0.00832  -0.1778  0.3466  0.0158  -3.3239   0.0000   0.0000   0.0000   1.0707
  -4.650   0.2319   0.01402   0.00832  -0.1777  0.3465  0.0158  -3.3177   0.0000   0.0000   0.0000   1.0664
[...]
  -1.840   0.5294   0.01527   0.00948  -0.1640  0.3432  0.0173  -2.2917   0.0000   0.0000   0.0000   0.5616
  -1.830   0.5304   0.01528   0.00949  -0.1639  0.3432  0.0173  -2.2928   0.0000   0.0000   0.0000   0.5609
  -1.820   0.5314   0.01529   0.00950  -0.1639  0.3431  0.0173  -2.2940   0.0000   0.0000   0.0000   0.5601
  -1.810   0.5324   0.01529   0.00951  -0.1638  0.3431  0.0174  -2.2951   0.0000   0.0000   0.0000   0.5594
  -1.800   0.5334   0.01530   0.00952  -0.1638  0.3431  0.0174  -2.2963   0.0000   0.0000   0.0000   0.5586
  -1.790   0.5344   0.01531   0.00952  -0.1637  0.3431  0.0174  -2.2975   0.0000   0.0000   0.0000   0.5579
  -1.780   0.5354   0.01532   0.00953  -0.1637  0.3431  0.0174  -2.2986   0.0000   0.0000   0.0000   0.5571
  -1.770   0.5364   0.01533   0.00954  -0.1636  0.3430  0.0174  -2.2998   0.0000   0.0000   0.0000   0.5564
  -1.760   0.5374   0.01534   0.00955  -0.1636  0.3430  0.0174  -2.3010   0.0000   0.0000   0.0000   0.5556
  -1.750   0.5384   0.01535   0.00956  -0.1635  0.3430  0.0174  -2.3022   0.0000   0.0000   0.0000   0.5549
  -1.740   0.5395   0.01535   0.00957  -0.1635  0.3430  0.0174  -2.3033   0.0000   0.0000   0.0000   0.5542
  -1.730   0.5405   0.01536   0.00958  -0.1634  0.3430  0.0174  -2.3045   0.0000   0.0000   0.0000   0.5534
  -1.720   0.5415   0.01537   0.00958  -0.1634  0.3429  0.0174  -2.3057   0.0000   0.0000   0.0000   0.5527
  -1.710   0.5425   0.01538   0.00959  -0.1633  0.3429  0.0174  -2.3069   0.0000   0.0000   0.0000   0.5520
  -1.700   0.5435   0.01539   0.00960  -0.1633  0.3429  0.0174  -2.3080   0.0000   0.0000   0.0000   0.5513
  -1.690   0.5445   0.01540   0.00961  -0.1632  0.3429  0.0174  -2.3092   0.0000   0.0000   0.0000   0.5506
  -1.680   0.5455   0.01541   0.00962  -0.1632  0.3428  0.0174  -2.3104   0.0000   0.0000   0.0000   0.5498
  -1.670   0.5465   0.01541   0.00963  -0.1631  0.3428  0.0174  -2.3116   0.0000   0.0000   0.0000   0.5491
  -1.660   0.5476   0.01542   0.00963  -0.1631  0.3428  0.0174  -2.3128   0.0000   0.0000   0.0000   0.5484
  -1.650   0.5486   0.01543   0.00964  -0.1630  0.3428  0.0174  -2.3140   0.0000   0.0000   0.0000   0.5477
  -1.640   0.5496   0.01544   0.00965  -0.1630  0.3427  0.0174  -2.3151   0.0000   0.0000   0.0000   0.5470
  -1.630   0.5506   0.01545   0.00966  -0.1630  0.3427  0.0174  -2.3163   0.0000   0.0000   0.0000   0.5463
  -1.620   0.5516   0.01546   0.00967  -0.1629  0.3427  0.0174  -2.3175   0.0000   0.0000   0.0000   0.5456
  -1.610   0.5526   0.01546   0.00968  -0.1629  0.3427  0.0175  -2.3187   0.0000   0.0000   0.0000   0.5449
  -1.600   0.5537   0.01547   0.00969  -0.1628  0.3427  0.0175  -2.3199   0.0000   0.0000   0.0000   0.5442
  -1.590   0.5547   0.01548   0.00969  -0.1628  0.3426  0.0175  -2.3211   0.0000   0.0000   0.0000   0.5435
  -1.580   0.5557   0.01549   0.00970  -0.1627  0.3426  0.0175  -2.3223   0.0000   0.0000   0.0000   0.5428
  -1.570   0.5567   0.01550   0.00971  -0.1627  0.3426  0.0175  -2.3235   0.0000   0.0000   0.0000   0.5421
  -1.560   0.5577   0.01551   0.00972  -0.1626  0.3426  0.0175  -2.3246   0.0000   0.0000   0.0000   0.5414
  -1.550   0.5588   0.01552   0.00973  -0.1626  0.3425  0.0175  -2.3258   0.0000   0.0000   0.0000   0.5407
  -1.540   0.5598   0.01552   0.00974  -0.1625  0.3425  0.0175  -2.3270   0.0000   0.0000   0.0000   0.5400
  -1.530   0.5608   0.01553   0.00974  -0.1625  0.3425  0.0175  -2.3282   0.0000   0.0000   0.0000   0.5394
  -1.520   0.5618   0.01554   0.00975  -0.1624  0.3424  0.0175  -2.3294   0.0000   0.0000   0.0000   0.5387
  -1.510   0.5628   0.01555   0.00976  -0.1624  0.3424  0.0175  -2.3306   0.0000   0.0000   0.0000   0.5380
  -1.500   0.5639   0.01556   0.00977  -0.1623  0.3424  0.0175  -2.3318   0.0000   0.0000   0.0000   0.5373
  -1.490   0.5649   0.01557   0.00978  -0.1623  0.3424  0.0175  -2.3330   0.0000   0.0000   0.0000   0.5367
  -1.480   0.5659   0.01558   0.00979  -0.1623  0.3423  0.0175  -2.3342   0.0000   0.0000   0.0000   0.5360
  -1.470   0.5669   0.01558   0.00980  -0.1622  0.3423  0.0175  -2.3354   0.0000   0.0000   0.0000   0.5353
  -1.460   0.5679   0.01559   0.00981  -0.1622  0.3423  0.0175  -2.3365   0.0000   0.0000   0.0000   0.5347
  -1.450   0.5690   0.01560   0.00981  -0.1621  0.3423  0.0175  -2.3377   0.0000   0.0000   0.0000   0.5340
  -1.440   0.5700   0.01561   0.00982  -0.1621  0.3422  0.0175  -2.3389   0.0000   0.0000   0.0000   0.5333
  -1.430   0.5710   0.01562   0.00983  -0.1620  0.3422  0.0175  -2.3401   0.0000   0.0000   0.0000   0.5327
  -1.420   0.5720   0.01563   0.00984  -0.1620  0.3422  0.0175  -2.3413   0.0000   0.0000   0.0000   0.5320
  -1.410   0.5730   0.01564   0.00985  -0.1619  0.3421  0.0176  -2.3425   0.0000   0.0000   0.0000   0.5314
  -1.400   0.5741   0.01564   0.00986  -0.1619  0.3421  0.0176  -2.3437   0.0000   0.0000   0.0000   0.5307
  -1.390   0.5751   0.01565   0.00987  -0.1618  0.3421  0.0176  -2.3449   0.0000   0.0000   0.0000   0.5301
  -1.380   0.5761   0.01566   0.00988  -0.1618  0.3421  0.0176  -2.3461   0.0000   0.0000   0.0000   0.5294
  -1.370   0.5771   0.01567   0.00988  -0.1617  0.3420  0.0176  -2.3473   0.0000   0.0000   0.0000   0.5288
  -1.360   0.5781   0.01568   0.00989  -0.1617  0.3420  0.0176  -2.3484   0.0000   0.0000   0.0000   0.5282
  -1.350   0.5791   0.01569   0.00990  -0.1617  0.3420  0.0176  -2.3496   0.0000   0.0000   0.0000   0.5275
  -1.340   0.5802   0.01570   0.00991  -0.1616  0.3419  0.0176  -2.3508   0.0000   0.0000   0.0000   0.5269
  -1.330   0.5812   0.01571   0.00992  -0.1616  0.3419  0.0176  -2.3520   0.0000   0.0000   0.0000   0.5263
  -1.320   0.5822   0.01572   0.00993  -0.1615  0.3419  0.0176  -2.3532   0.0000   0.0000   0.0000   0.5256
  -1.310   0.5832   0.01572   0.00994  -0.1615  0.3419  0.0176  -2.3544   0.0000   0.0000   0.0000   0.5250
  -1.300   0.5842   0.01573   0.00995  -0.1614  0.3418  0.0176  -2.3556   0.0000   0.0000   0.0000   0.5244
  -1.290   0.5852   0.01574   0.00996  -0.1614  0.3418  0.0176  -2.3568   0.0000   0.0000   0.0000   0.5238
  -1.280   0.5862   0.01575   0.00997  -0.1613  0.3418  0.0176  -2.3579   0.0000   0.0000   0.0000   0.5231
  -1.270   0.5872   0.01576   0.00997  -0.1613  0.3417  0.0177  -2.3591   0.0000   0.0000   0.0000   0.5225
  -1.260   0.5882   0.01577   0.00998  -0.1612  0.3417  0.0177  -2.3603   0.0000   0.0000   0.0000   0.5219
  -1.250   0.5892   0.01578   0.01000  -0.1612  0.3417  0.0177  -2.3614   0.0000   0.0000   0.0000   0.5213
  -1.240   0.5902   0.01579   0.01001  -0.1611  0.3417  0.0177  -2.3626   0.0000   0.0000   0.0000   0.5207
  -1.230   0.5911   0.01580   0.01002  -0.1611  0.3416  0.0177  -2.3637   0.0000   0.0000   0.0000   0.5201
  -1.220   0.5921   0.01581   0.01003  -0.1610  0.3416  0.0177  -2.3648   0.0000   0.0000   0.0000   0.5195
  -1.210   0.5930   0.01583   0.01004  -0.1610  0.3416  0.0177  -2.3659   0.0000   0.0000   0.0000   0.5189
  -1.200   0.5940   0.01584   0.01005  -0.1609  0.3415  0.0177  -2.3670   0.0000   0.0000   0.0000   0.5184
  -1.190   0.5949   0.01585   0.01006  -0.1609  0.3415  0.0178  -2.3681   0.0000   0.0000   0.0000   0.5178
  -1.180   0.5958   0.01586   0.01008  -0.1608  0.3415  0.0178  -2.3692   0.0000   0.0000   0.0000   0.5172
  -1.170   0.5967   0.01587   0.01009  -0.1607  0.3414  0.0178  -2.3703   0.0000   0.0000   0.0000   0.5166
  -1.160   0.5976   0.01589   0.01010  -0.1607  0.3414  0.0178  -2.3714   0.0000   0.0000   0.0000   0.5161
  -1.150   0.5985   0.01590   0.01011  -0.1606  0.3414  0.0178  -2.3724   0.0000   0.0000   0.0000   0.5155
  -1.140   0.5994   0.01591   0.01013  -0.1606  0.3413  0.0178  -2.3735   0.0000   0.0000   0.0000   0.5149
  -1.130   0.6003   0.01593   0.01014  -0.1605  0.3413  0.0178  -2.3746   0.0000   0.0000   0.0000   0.5144
  -1.120   0.6012   0.01594   0.01015  -0.1604  0.3413  0.0178  -2.3757   0.0000   0.0000   0.0000   0.5138
  -1.110   0.6021   0.01595   0.01017  -0.1604  0.3413  0.0179  -2.3767   0.0000   0.0000   0.0000   0.5132
  -1.100   0.6030   0.01596   0.01018  -0.1603  0.3412  0.0179  -2.3778   0.0000   0.0000   0.0000   0.5127
  -1.090   0.6039   0.01598   0.01019  -0.1603  0.3412  0.0179  -2.3789   0.0000   0.0000   0.0000   0.5121
  -1.080   0.6048   0.01599   0.01021  -0.1602  0.3412  0.0179  -2.3799   0.0000   0.0000   0.0000   0.5116
  -1.070   0.6057   0.01600   0.01022  -0.1601  0.3411  0.0179  -2.3810   0.0000   0.0000   0.0000   0.5110
  -1.060   0.6066   0.01602   0.01023  -0.1601  0.3411  0.0179  -2.3821   0.0000   0.0000   0.0000   0.5105
  -1.050   0.6075   0.01603   0.01025  -0.1600  0.3411  0.0180  -2.3831   0.0000   0.0000   0.0000   0.5099
  -1.040   0.6084   0.01604   0.01026  -0.1600  0.3410  0.0180  -2.3842   0.0000   0.0000   0.0000   0.5094
  -1.030   0.6094   0.01605   0.01027  -0.1599  0.3410  0.0180  -2.3853   0.0000   0.0000   0.0000   0.5088
  -1.020   0.6103   0.01607   0.01028  -0.1599  0.3410  0.0180  -2.3864   0.0000   0.0000   0.0000   0.5083
  -1.010   0.6112   0.01608   0.01030  -0.1598  0.3410  0.0180  -2.3875   0.0000   0.0000   0.0000   0.5077
  -1.000   0.6121   0.01609   0.01031  -0.1597  0.3409  0.0180  -2.3886   0.0000   0.0000   0.0000   0.5072
  -0.990   0.6131   0.01610   0.01032  -0.1597  0.3409  0.0181  -2.3897   0.0000   0.0000   0.0000   0.5066
  -0.980   0.6140   0.01611   0.01033  -0.1596  0.3409  0.0181  -2.3908   0.0000   0.0000   0.0000   0.5061
  -0.970   0.6149   0.01613   0.01034  -0.1596  0.3408  0.0181  -2.3919   0.0000   0.0000   0.0000   0.5056
  -0.960   0.6159   0.01614   0.01036  -0.1595  0.3408  0.0181  -2.3930   0.0000   0.0000   0.0000   0.5050
  -0.950   0.6168   0.01615   0.01037  -0.1595  0.3408  0.0182  -2.3941   0.0000   0.0000   0.0000   0.5045
  -0.940   0.6178   0.01616   0.01038  -0.1594  0.3408  0.0182  -2.3953   0.0000   0.0000   0.0000   0.5039
  -0.930   0.6187   0.01617   0.01039  -0.1594  0.3407  0.0182  -2.3964   0.0000   0.0000   0.0000   0.5034
  -0.920   0.6197   0.01618   0.01040  -0.1593  0.3407  0.0182  -2.3975   0.0000   0.0000   0.0000   0.5029
  -0.910   0.6206   0.01619   0.01042  -0.1593  0.3407  0.0183  -2.3986   0.0000   0.0000   0.0000   0.5023
  -0.900   0.6216   0.01621   0.01043  -0.1592  0.3406  0.0183  -2.3998   0.0000   0.0000   0.0000   0.5018
  -0.890   0.6226   0.01622   0.01044  -0.1592  0.3406  0.0183  -2.4009   0.0000   0.0000   0.0000   0.5012
  -0.880   0.6235   0.01623   0.01045  -0.1591  0.3406  0.0183  -2.4020   0.0000   0.0000   0.0000   0.5007
  -0.870   0.6245   0.01624   0.01046  -0.1591  0.3406  0.0184  -2.4032   0.0000   0.0000   0.0000   0.5002
  -0.860   0.6255   0.01625   0.01047  -0.1590  0.3405  0.0184  -2.4043   0.0000   0.0000   0.0000   0.4997
  -0.850   0.6264   0.01626   0.01048  -0.1590  0.3405  0.0184  -2.4054   0.0000   0.0000   0.0000   0.4991
  -0.840   0.6274   0.01627   0.01049  -0.1589  0.3405  0.0184  -2.4066   0.0000   0.0000   0.0000   0.4986
  -0.830   0.6284   0.01628   0.01051  -0.1589  0.3405  0.0185  -2.4077   0.0000   0.0000   0.0000   0.4981
  -0.820   0.6293   0.01629   0.01052  -0.1588  0.3404  0.0185  -2.4089   0.0000   0.0000   0.0000   0.4975
  -0.810   0.6303   0.01630   0.01053  -0.1588  0.3404  0.0185  -2.4100   0.0000   0.0000   0.0000   0.4970
  -0.800   0.6313   0.01632   0.01054  -0.1587  0.3404  0.0185  -2.4112   0.0000   0.0000   0.0000   0.4965
  -0.790   0.6323   0.01633   0.01055  -0.1587  0.3404  0.0186  -2.4123   0.0000   0.0000   0.0000   0.4960
  -0.780   0.6333   0.01634   0.01056  -0.1586  0.3403  0.0186  -2.4135   0.0000   0.0000   0.0000   0.4955
  -0.770   0.6342   0.01635   0.01057  -0.1586  0.3403  0.0186  -2.4146   0.0000   0.0000   0.0000   0.4949
  -0.760   0.6352   0.01636   0.01058  -0.1585  0.3403  0.0186  -2.4158   0.0000   0.0000   0.0000   0.4944
  -0.750   0.6362   0.01637   0.01059  -0.1585  0.3403  0.0187  -2.4169   0.0000   0.0000   0.0000   0.4939
  -0.740   0.6372   0.01638   0.01061  -0.1584  0.3403  0.0187  -2.4181   0.0000   0.0000   0.0000   0.4934
  -0.730   0.6382   0.01639   0.01062  -0.1584  0.3402  0.0187  -2.4192   0.0000   0.0000   0.0000   0.4929
  -0.720   0.6392   0.01640   0.01063  -0.1583  0.3402  0.0187  -2.4204   0.0000   0.0000   0.0000   0.4924
  -0.710   0.6402   0.01641   0.01064  -0.1583  0.3402  0.0188  -2.4216   0.0000   0.0000   0.0000   0.4918
  -0.700   0.6411   0.01642   0.01065  -0.1582  0.3402  0.0188  -2.4227   0.0000   0.0000   0.0000   0.4913
  -0.690   0.6421   0.01643   0.01066  -0.1582  0.3402  0.0188  -2.4239   0.0000   0.0000   0.0000   0.4908
  -0.680   0.6431   0.01644   0.01067  -0.1582  0.3401  0.0188  -2.4250   0.0000   0.0000   0.0000   0.4903
  -0.670   0.6441   0.01645   0.01068  -0.1581  0.3401  0.0188  -2.4262   0.0000   0.0000   0.0000   0.4898
  -0.660   0.6451   0.01646   0.01069  -0.1581  0.3401  0.0189  -2.4274   0.0000   0.0000   0.0000   0.4893
  -0.650   0.6461   0.01648   0.01070  -0.1580  0.3401  0.0189  -2.4285   0.0000   0.0000   0.0000   0.4888
  -0.640   0.6471   0.01649   0.01071  -0.1580  0.3401  0.0189  -2.4297   0.0000   0.0000   0.0000   0.4883
  -0.630   0.6481   0.01650   0.01072  -0.1579  0.3401  0.0189  -2.4309   0.0000   0.0000   0.0000   0.4878
  -0.620   0.6491   0.01651   0.01074  -0.1579  0.3401  0.0190  -2.4321   0.0000   0.0000   0.0000   0.4873
  -0.610   0.6501   0.01652   0.01075  -0.1578  0.3400  0.0190  -2.4332   0.0000   0.0000   0.0000   0.4868
  -0.600   0.6511   0.01653   0.01076  -0.1578  0.3400  0.0190  -2.4344   0.0000   0.0000   0.0000   0.4863
  -0.590   0.6521   0.01654   0.01077  -0.1577  0.3400  0.0190  -2.4356   0.0000   0.0000   0.0000   0.4858
  -0.580   0.6531   0.01655   0.01078  -0.1577  0.3400  0.0190  -2.4367   0.0000   0.0000   0.0000   0.4853
  -0.570   0.6541   0.01656   0.01079  -0.1577  0.3400  0.0191  -2.4379   0.0000   0.0000   0.0000   0.4848
  -0.560   0.6551   0.01657   0.01080  -0.1576  0.3400  0.0191  -2.4391   0.0000   0.0000   0.0000   0.4844
  -0.550   0.6561   0.01658   0.01081  -0.1576  0.3400  0.0191  -2.4403   0.0000   0.0000   0.0000   0.4839
  -0.540   0.6571   0.01659   0.01082  -0.1575  0.3400  0.0191  -2.4414   0.0000   0.0000   0.0000   0.4834
  -0.530   0.6581   0.01660   0.01083  -0.1575  0.3399  0.0191  -2.4426   0.0000   0.0000   0.0000   0.4829
  -0.520   0.6592   0.01661   0.01084  -0.1574  0.3399  0.0191  -2.4438   0.0000   0.0000   0.0000   0.4824
  -0.510   0.6602   0.01662   0.01086  -0.1574  0.3399  0.0192  -2.4449   0.0000   0.0000   0.0000   0.4819
  -0.500   0.6612   0.01663   0.01087  -0.1574  0.3399  0.0192  -2.4461   0.0000   0.0000   0.0000   0.4815
  -0.490   0.6622   0.01665   0.01088  -0.1573  0.3399  0.0192  -2.4473   0.0000   0.0000   0.0000   0.4810
  -0.480   0.6632   0.01666   0.01089  -0.1573  0.3399  0.0192  -2.4485   0.0000   0.0000   0.0000   0.4805
  -0.470   0.6642   0.01667   0.01090  -0.1572  0.3399  0.0192  -2.4496   0.0000   0.0000   0.0000   0.4800
  -0.460   0.6652   0.01668   0.01091  -0.1572  0.3399  0.0192  -2.4508   0.0000   0.0000   0.0000   0.4795
  -0.450   0.6662   0.01669   0.01092  -0.1571  0.3398  0.0192  -2.4520   0.0000   0.0000   0.0000   0.4791
  -0.440   0.6672   0.01670   0.01093  -0.1571  0.3398  0.0192  -2.4531   0.0000   0.0000   0.0000   0.4786
  -0.430   0.6682   0.01671   0.01094  -0.1570  0.3398  0.0192  -2.4543   0.0000   0.0000   0.0000   0.4781
  -0.420   0.6692   0.01672   0.01096  -0.1570  0.3398  0.0193  -2.4555   0.0000   0.0000   0.0000   0.4777
  -0.410   0.6702   0.01673   0.01097  -0.1570  0.3398  0.0193  -2.4567   0.0000   0.0000   0.0000   0.4772
  -0.400   0.6712   0.01674   0.01098  -0.1569  0.3398  0.0193  -2.4578   0.0000   0.0000   0.0000   0.4767
  -0.390   0.6721   0.01676   0.01099  -0.1569  0.3398  0.0193  -2.4590   0.0000   0.0000   0.0000   0.4763
  -0.380   0.6731   0.01677   0.01100  -0.1568  0.3398  0.0193  -2.4601   0.0000   0.0000   0.0000   0.4758
  -0.370   0.6741   0.01678   0.01102  -0.1568  0.3397  0.0193  -2.4612   0.0000   0.0000   0.0000   0.4754
  -0.360   0.6750   0.01679   0.01103  -0.1567  0.3397  0.0193  -2.4623   0.0000   0.0000   0.0000   0.4749
  -0.350   0.6759   0.01681   0.01104  -0.1567  0.3397  0.0193  -2.4634   0.0000   0.0000   0.0000   0.4745
  -0.340   0.6769   0.01682   0.01106  -0.1566  0.3397  0.0193  -2.4645   0.0000   0.0000   0.0000   0.4740
  -0.330   0.6778   0.01684   0.01107  -0.1566  0.3397  0.0193  -2.4656   0.0000   0.0000   0.0000   0.4736
  -0.320   0.6787   0.01685   0.01109  -0.1565  0.3397  0.0193  -2.4666   0.0000   0.0000   0.0000   0.4731
  -0.310   0.6796   0.01687   0.01110  -0.1565  0.3397  0.0194  -2.4677   0.0000   0.0000   0.0000   0.4727
  -0.300   0.6805   0.01688   0.01112  -0.1564  0.3397  0.0194  -2.4687   0.0000   0.0000   0.0000   0.4723
  -0.290   0.6813   0.01690   0.01113  -0.1563  0.3396  0.0194  -2.4698   0.0000   0.0000   0.0000   0.4718
  -0.280   0.6822   0.01691   0.01115  -0.1563  0.3396  0.0194  -2.4708   0.0000   0.0000   0.0000   0.4714
  -0.270   0.6831   0.01693   0.01117  -0.1562  0.3396  0.0194  -2.4719   0.0000   0.0000   0.0000   0.4710
  -0.260   0.6840   0.01694   0.01118  -0.1562  0.3396  0.0194  -2.4729   0.0000   0.0000   0.0000   0.4706
  -0.250   0.6849   0.01696   0.01120  -0.1561  0.3396  0.0194  -2.4740   0.0000   0.0000   0.0000   0.4701
  -0.240   0.6858   0.01697   0.01121  -0.1561  0.3396  0.0194  -2.4750   0.0000   0.0000   0.0000   0.4697
  -0.230   0.6866   0.01699   0.01123  -0.1560  0.3396  0.0194  -2.4760   0.0000   0.0000   0.0000   0.4693
  -0.220   0.6875   0.01701   0.01125  -0.1559  0.3395  0.0194  -2.4771   0.0000   0.0000   0.0000   0.4689
  -0.210   0.6884   0.01702   0.01126  -0.1559  0.3395  0.0194  -2.4781   0.0000   0.0000   0.0000   0.4684
  -0.200   0.6893   0.01704   0.01128  -0.1558  0.3395  0.0194  -2.4792   0.0000   0.0000   0.0000   0.4680
  -0.190   0.6902   0.01705   0.01129  -0.1558  0.3395  0.0195  -2.4802   0.0000   0.0000   0.0000   0.4676
  -0.180   0.6911   0.01707   0.01131  -0.1557  0.3395  0.0195  -2.4813   0.0000   0.0000   0.0000   0.4672
  -0.170   0.6920   0.01708   0.01132  -0.1557  0.3395  0.0195  -2.4823   0.0000   0.0000   0.0000   0.4667
  -0.160   0.6929   0.01710   0.01134  -0.1556  0.3395  0.0195  -2.4834   0.0000   0.0000   0.0000   0.4663
  -0.150   0.6938   0.01711   0.01135  -0.1556  0.3395  0.0195  -2.4845   0.0000   0.0000   0.0000   0.4659
  -0.140   0.6947   0.01713   0.01137  -0.1555  0.3394  0.0195  -2.4855   0.0000   0.0000   0.0000   0.4655
  -0.130   0.6956   0.01714   0.01138  -0.1555  0.3394  0.0195  -2.4866   0.0000   0.0000   0.0000   0.4651
  -0.120   0.6965   0.01716   0.01140  -0.1554  0.3394  0.0195  -2.4877   0.0000   0.0000   0.0000   0.4647
  -0.110   0.6975   0.01717   0.01141  -0.1553  0.3394  0.0195  -2.4888   0.0000   0.0000   0.0000   0.4642
  -0.100   0.6984   0.01718   0.01143  -0.1553  0.3394  0.0195  -2.4899   0.0000   0.0000   0.0000   0.4638
  -0.090   0.6993   0.01720   0.01144  -0.1552  0.3394  0.0195  -2.4910   0.0000   0.0000   0.0000   0.4634
  -0.080   0.7003   0.01721   0.01146  -0.1552  0.3394  0.0195  -2.4921   0.0000   0.0000   0.0000   0.4630
  -0.070   0.7012   0.01723   0.01147  -0.1551  0.3393  0.0196  -2.4932   0.0000   0.0000   0.0000   0.4626
  -0.060   0.7021   0.01724   0.01149  -0.1551  0.3393  0.0196  -2.4943   0.0000   0.0000   0.0000   0.4622
  -0.050   0.7031   0.01725   0.01150  -0.1550  0.3393  0.0196  -2.4954   0.0000   0.0000   0.0000   0.4617
  -0.040   0.7040   0.01727   0.01151  -0.1550  0.3393  0.0196  -2.4965   0.0000   0.0000   0.0000   0.4613
  -0.030   0.7050   0.01728   0.01153  -0.1550  0.3393  0.0196  -2.4976   0.0000   0.0000   0.0000   0.4609
  -0.020   0.7059   0.01729   0.01154  -0.1549  0.3393  0.0196  -2.4987   0.0000   0.0000   0.0000   0.4605
  -0.010   0.7069   0.01731   0.01156  -0.1549  0.3393  0.0196  -2.4998   0.0000   0.0000   0.0000   0.4601
   0.000   0.7078   0.01732   0.01157  -0.1548  0.3393  0.0196  -2.5009   0.0000   0.0000   0.0000   0.4597


