xflr5 v6.61

 Calculated polar for: Airfoil-RevE-HC

 1 1 Reynolds number fixed          Mach number fixed         

 xtrf =   1.000 (top)        1.000 (bottom)
 Mach =   0.450     Re =     4.400 e 6     Ncrit =   0.500

  alpha     CL        CD       CDp       Cm    Top Xtr Bot Xtr   Cpmin    Chinge    XCp    
 ------- -------- --------- --------- -------- ------- ------- -------- --------- ---------
   0.000   0.7078   0.01732   0.01157  -0.1548  0.3393  0.0196  -2.5009   0.0000   0.0000   0.0000   0.4597
   0.010   0.7088   0.01734   0.01158  -0.1548  0.3392  0.0196  -2.5020   0.0000   0.0000   0.0000   0.4593
   0.020   0.7097   0.01735   0.01160  -0.1547  0.3392  0.0196  -2.5032   0.0000   0.0000   0.0000   0.4589
   0.030   0.7107   0.01736   0.01161  -0.1547  0.3392  0.0196  -2.5043   0.0000   0.0000   0.0000   0.4585
   0.040   0.7116   0.01738   0.01163  -0.1546  0.3392  0.0196  -2.5054   0.0000   0.0000   0.0000   0.4581
   0.050   0.7126   0.01739   0.01164  -0.1546  0.3392  0.0197  -2.5065   0.0000   0.0000   0.0000   0.4577
   0.060   0.7136   0.01740   0.01165  -0.1545  0.3392  0.0197  -2.5077   0.0000   0.0000   0.0000   0.4573
   0.070   0.7145   0.01742   0.01167  -0.1545  0.3392  0.0197  -2.5088   0.0000   0.0000   0.0000   0.4569
   0.080   0.7155   0.01743   0.01168  -0.1544  0.3391  0.0197  -2.5099   0.0000   0.0000   0.0000   0.4565
   0.090   0.7165   0.01744   0.01169  -0.1544  0.3391  0.0197  -2.5110   0.0000   0.0000   0.0000   0.4561
   0.100   0.7174   0.01746   0.01171  -0.1543  0.3391  0.0197  -2.5122   0.0000   0.0000   0.0000   0.4557
   0.110   0.7184   0.01747   0.01172  -0.1543  0.3391  0.0197  -2.5133   0.0000   0.0000   0.0000   0.4553
   0.120   0.7194   0.01748   0.01173  -0.1543  0.3391  0.0197  -2.5145   0.0000   0.0000   0.0000   0.4549
   0.130   0.7204   0.01750   0.01175  -0.1542  0.3391  0.0197  -2.5156   0.0000   0.0000   0.0000   0.4545
   0.140   0.7213   0.01751   0.01176  -0.1542  0.3391  0.0197  -2.5167   0.0000   0.0000   0.0000   0.4541
   0.150   0.7223   0.01752   0.01178  -0.1541  0.3391  0.0197  -2.5179   0.0000   0.0000   0.0000   0.4537
   0.160   0.7233   0.01754   0.01179  -0.1541  0.3390  0.0197  -2.5190   0.0000   0.0000   0.0000   0.4533
   0.170   0.7242   0.01755   0.01180  -0.1540  0.3390  0.0197  -2.5201   0.0000   0.0000   0.0000   0.4529
   0.180   0.7252   0.01756   0.01182  -0.1540  0.3390  0.0198  -2.5213   0.0000   0.0000   0.0000   0.4525
   0.190   0.7262   0.01758   0.01183  -0.1540  0.3390  0.0198  -2.5224   0.0000   0.0000   0.0000   0.4521
   0.200   0.7272   0.01759   0.01184  -0.1539  0.3390  0.0198  -2.5235   0.0000   0.0000   0.0000   0.4517
   0.210   0.7281   0.01760   0.01186  -0.1539  0.3390  0.0198  -2.5247   0.0000   0.0000   0.0000   0.4513
   0.220   0.7291   0.01762   0.01187  -0.1538  0.3390  0.0198  -2.5258   0.0000   0.0000   0.0000   0.4509
   0.230   0.7301   0.01763   0.01188  -0.1538  0.3389  0.0198  -2.5270   0.0000   0.0000   0.0000   0.4506
   0.240   0.7311   0.01764   0.01190  -0.1537  0.3389  0.0198  -2.5281   0.0000   0.0000   0.0000   0.4502
   0.250   0.7320   0.01765   0.01191  -0.1537  0.3389  0.0198  -2.5292   0.0000   0.0000   0.0000   0.4498
   0.260   0.7330   0.01767   0.01193  -0.1536  0.3389  0.0198  -2.5304   0.0000   0.0000   0.0000   0.4494
   0.270   0.7340   0.01768   0.01194  -0.1536  0.3389  0.0198  -2.5315   0.0000   0.0000   0.0000   0.4490
   0.280   0.7350   0.01769   0.01195  -0.1536  0.3389  0.0198  -2.5327   0.0000   0.0000   0.0000   0.4486
   0.290   0.7359   0.01771   0.01197  -0.1535  0.3389  0.0198  -2.5338   0.0000   0.0000   0.0000   0.4483
   0.300   0.7369   0.01772   0.01198  -0.1535  0.3389  0.0199  -2.5349   0.0000   0.0000   0.0000   0.4479
   0.310   0.7379   0.01774   0.01199  -0.1534  0.3388  0.0199  -2.5361   0.0000   0.0000   0.0000   0.4475
   0.320   0.7389   0.01775   0.01201  -0.1534  0.3388  0.0199  -2.5372   0.0000   0.0000   0.0000   0.4471
   0.330   0.7398   0.01776   0.01202  -0.1533  0.3388  0.0199  -2.5384   0.0000   0.0000   0.0000   0.4468
   0.340   0.7408   0.01778   0.01203  -0.1533  0.3388  0.0199  -2.5395   0.0000   0.0000   0.0000   0.4464
   0.350   0.7418   0.01779   0.01205  -0.1533  0.3388  0.0199  -2.5406   0.0000   0.0000   0.0000   0.4460
   0.360   0.7428   0.01780   0.01206  -0.1532  0.3388  0.0199  -2.5418   0.0000   0.0000   0.0000   0.4456
   0.370   0.7437   0.01782   0.01208  -0.1532  0.3388  0.0199  -2.5429   0.0000   0.0000   0.0000   0.4453
   0.380   0.7447   0.01783   0.01209  -0.1531  0.3387  0.0199  -2.5440   0.0000   0.0000   0.0000   0.4449
   0.390   0.7457   0.01784   0.01210  -0.1531  0.3387  0.0199  -2.5452   0.0000   0.0000   0.0000   0.4445
   0.400   0.7467   0.01786   0.01212  -0.1530  0.3387  0.0199  -2.5463   0.0000   0.0000   0.0000   0.4442
   0.410   0.7476   0.01787   0.01213  -0.1530  0.3387  0.0199  -2.5474   0.0000   0.0000   0.0000   0.4438
   0.420   0.7486   0.01788   0.01215  -0.1530  0.3387  0.0200  -2.5486   0.0000   0.0000   0.0000   0.4434
   0.430   0.7496   0.01790   0.01216  -0.1529  0.3387  0.0200  -2.5497   0.0000   0.0000   0.0000   0.4431
   0.440   0.7505   0.01791   0.01218  -0.1529  0.3387  0.0200  -2.5508   0.0000   0.0000   0.0000   0.4427
   0.450   0.7514   0.01793   0.01219  -0.1528  0.3386  0.0200  -2.5519   0.0000   0.0000   0.0000   0.4423
   0.460   0.7524   0.01794   0.01221  -0.1528  0.3386  0.0200  -2.5530   0.0000   0.0000   0.0000   0.4420
   0.470   0.7533   0.01796   0.01222  -0.1527  0.3386  0.0200  -2.5540   0.0000   0.0000   0.0000   0.4416
   0.480   0.7542   0.01798   0.01224  -0.1527  0.3386  0.0200  -2.5551   0.0000   0.0000   0.0000   0.4413
   0.490   0.7550   0.01799   0.01226  -0.1526  0.3386  0.0200  -2.5561   0.0000   0.0000   0.0000   0.4409
   0.500   0.7559   0.01801   0.01228  -0.1526  0.3386  0.0200  -2.5571   0.0000   0.0000   0.0000   0.4406
   0.510   0.7568   0.01803   0.01229  -0.1525  0.3386  0.0200  -2.5582   0.0000   0.0000   0.0000   0.4402
   0.520   0.7576   0.01805   0.01231  -0.1524  0.3385  0.0200  -2.5592   0.0000   0.0000   0.0000   0.4399
   0.530   0.7585   0.01807   0.01233  -0.1524  0.3385  0.0200  -2.5602   0.0000   0.0000   0.0000   0.4396
   0.540   0.7593   0.01808   0.01235  -0.1523  0.3385  0.0200  -2.5612   0.0000   0.0000   0.0000   0.4392
   0.550   0.7602   0.01810   0.01237  -0.1523  0.3385  0.0201  -2.5622   0.0000   0.0000   0.0000   0.4389
   0.560   0.7610   0.01812   0.01239  -0.1522  0.3385  0.0201  -2.5631   0.0000   0.0000   0.0000   0.4385
   0.570   0.7619   0.01814   0.01241  -0.1522  0.3385  0.0201  -2.5641   0.0000   0.0000   0.0000   0.4382
   0.580   0.7627   0.01816   0.01243  -0.1521  0.3385  0.0201  -2.5651   0.0000   0.0000   0.0000   0.4379
   0.590   0.7636   0.01818   0.01245  -0.1520  0.3385  0.0201  -2.5661   0.0000   0.0000   0.0000   0.4375
   0.600   0.7644   0.01820   0.01247  -0.1520  0.3384  0.0201  -2.5671   0.0000   0.0000   0.0000   0.4372
   0.610   0.7652   0.01822   0.01249  -0.1519  0.3384  0.0201  -2.5681   0.0000   0.0000   0.0000   0.4368
   0.620   0.7661   0.01823   0.01251  -0.1519  0.3384  0.0201  -2.5691   0.0000   0.0000   0.0000   0.4365
   0.630   0.7669   0.01825   0.01253  -0.1518  0.3384  0.0201  -2.5701   0.0000   0.0000   0.0000   0.4362
   0.640   0.7678   0.01827   0.01254  -0.1518  0.3384  0.0201  -2.5711   0.0000   0.0000   0.0000   0.4358
   0.650   0.7687   0.01829   0.01256  -0.1517  0.3384  0.0201  -2.5721   0.0000   0.0000   0.0000   0.4355
   0.660   0.7695   0.01831   0.01258  -0.1517  0.3384  0.0201  -2.5731   0.0000   0.0000   0.0000   0.4352
   0.670   0.7704   0.01832   0.01260  -0.1516  0.3383  0.0201  -2.5741   0.0000   0.0000   0.0000   0.4348
   0.680   0.7713   0.01834   0.01262  -0.1516  0.3383  0.0202  -2.5752   0.0000   0.0000   0.0000   0.4345
   0.690   0.7722   0.01836   0.01264  -0.1515  0.3383  0.0202  -2.5762   0.0000   0.0000   0.0000   0.4342
   0.700   0.7731   0.01838   0.01265  -0.1515  0.3383  0.0202  -2.5773   0.0000   0.0000   0.0000   0.4338
   0.710   0.7740   0.01839   0.01267  -0.1514  0.3383  0.0202  -2.5783   0.0000   0.0000   0.0000   0.4335
   0.720   0.7749   0.01841   0.01269  -0.1514  0.3383  0.0202  -2.5794   0.0000   0.0000   0.0000   0.4332
   0.730   0.7758   0.01843   0.01271  -0.1513  0.3383  0.0202  -2.5804   0.0000   0.0000   0.0000   0.4328
   0.740   0.7767   0.01845   0.01272  -0.1513  0.3382  0.0202  -2.5815   0.0000   0.0000   0.0000   0.4325
   0.750   0.7776   0.01846   0.01274  -0.1512  0.3382  0.0202  -2.5825   0.0000   0.0000   0.0000   0.4322
   0.760   0.7785   0.01848   0.01276  -0.1512  0.3382  0.0202  -2.5836   0.0000   0.0000   0.0000   0.4318
   0.770   0.7794   0.01850   0.01277  -0.1511  0.3382  0.0202  -2.5847   0.0000   0.0000   0.0000   0.4315
   0.780   0.7804   0.01851   0.01279  -0.1511  0.3382  0.0202  -2.5857   0.0000   0.0000   0.0000   0.4312
   0.790   0.7813   0.01853   0.01281  -0.1510  0.3382  0.0202  -2.5868   0.0000   0.0000   0.0000   0.4309
   0.800   0.7822   0.01854   0.01283  -0.1510  0.3382  0.0202  -2.5879   0.0000   0.0000   0.0000   0.4305
   0.810   0.7831   0.01856   0.01284  -0.1509  0.3381  0.0203  -2.5890   0.0000   0.0000   0.0000   0.4302
   0.820   0.7841   0.01858   0.01286  -0.1509  0.3381  0.0203  -2.5900   0.0000   0.0000   0.0000   0.4299
   0.830   0.7850   0.01859   0.01288  -0.1508  0.3381  0.0203  -2.5911   0.0000   0.0000   0.0000   0.4296
   0.840   0.7859   0.01861   0.01289  -0.1508  0.3381  0.0203  -2.5922   0.0000   0.0000   0.0000   0.4292
   0.850   0.7868   0.01863   0.01291  -0.1507  0.3381  0.0203  -2.5933   0.0000   0.0000   0.0000   0.4289
   0.860   0.7878   0.01864   0.01292  -0.1507  0.3381  0.0203  -2.5944   0.0000   0.0000   0.0000   0.4286
   0.870   0.7887   0.01866   0.01294  -0.1507  0.3381  0.0203  -2.5955   0.0000   0.0000   0.0000   0.4283
   0.880   0.7897   0.01867   0.01296  -0.1506  0.3380  0.0203  -2.5966   0.0000   0.0000   0.0000   0.4279
   0.890   0.7906   0.01869   0.01297  -0.1506  0.3380  0.0203  -2.5977   0.0000   0.0000   0.0000   0.4276
   0.900   0.7915   0.01871   0.01299  -0.1505  0.3380  0.0203  -2.5987   0.0000   0.0000   0.0000   0.4273
   0.910   0.7925   0.01872   0.01301  -0.1505  0.3380  0.0203  -2.5998   0.0000   0.0000   0.0000   0.4270
   0.920   0.7934   0.01874   0.01302  -0.1504  0.3380  0.0203  -2.6009   0.0000   0.0000   0.0000   0.4266
   0.930   0.7943   0.01875   0.01304  -0.1504  0.3380  0.0203  -2.6020   0.0000   0.0000   0.0000   0.4263
   0.940   0.7953   0.01877   0.01306  -0.1503  0.3380  0.0204  -2.6031   0.0000   0.0000   0.0000   0.4260
   0.950   0.7962   0.01879   0.01307  -0.1503  0.3379  0.0204  -2.6042   0.0000   0.0000   0.0000   0.4257
   0.960   0.7972   0.01880   0.01309  -0.1503  0.3379  0.0204  -2.6053   0.0000   0.0000   0.0000   0.4254
   0.970   0.7981   0.01882   0.01311  -0.1502  0.3379  0.0204  -2.6064   0.0000   0.0000   0.0000   0.4251
   0.980   0.7991   0.01883   0.01312  -0.1502  0.3379  0.0204  -2.6075   0.0000   0.0000   0.0000   0.4247
   0.990   0.8000   0.01885   0.01314  -0.1501  0.3379  0.0204  -2.6086   0.0000   0.0000   0.0000   0.4244
   1.000   0.8009   0.01886   0.01315  -0.1501  0.3379  0.0204  -2.6097   0.0000   0.0000   0.0000   0.4241
   1.010   0.8019   0.01888   0.01317  -0.1500  0.3379  0.0204  -2.6108   0.0000   0.0000   0.0000   0.4238
   1.020   0.8028   0.01890   0.01319  -0.1500  0.3378  0.0204  -2.6119   0.0000   0.0000   0.0000   0.4235
   1.030   0.8038   0.01891   0.01320  -0.1500  0.3378  0.0204  -2.6130   0.0000   0.0000   0.0000   0.4232
   1.040   0.8047   0.01893   0.01322  -0.1499  0.3378  0.0204  -2.6141   0.0000   0.0000   0.0000   0.4229
   1.050   0.8057   0.01894   0.01324  -0.1499  0.3378  0.0204  -2.6152   0.0000   0.0000   0.0000   0.4226
   1.060   0.8066   0.01896   0.01325  -0.1498  0.3378  0.0204  -2.6163   0.0000   0.0000   0.0000   0.4222
   1.070   0.8075   0.01898   0.01327  -0.1498  0.3378  0.0205  -2.6174   0.0000   0.0000   0.0000   0.4219
   1.080   0.8085   0.01899   0.01328  -0.1497  0.3378  0.0205  -2.6185   0.0000   0.0000   0.0000   0.4216
   1.090   0.8094   0.01901   0.01330  -0.1497  0.3377  0.0205  -2.6196   0.0000   0.0000   0.0000   0.4213
   1.100   0.8104   0.01902   0.01332  -0.1497  0.3377  0.0205  -2.6207   0.0000   0.0000   0.0000   0.4210
   1.110   0.8113   0.01904   0.01333  -0.1496  0.3377  0.0205  -2.6218   0.0000   0.0000   0.0000   0.4207
   1.120   0.8123   0.01906   0.01335  -0.1496  0.3377  0.0205  -2.6228   0.0000   0.0000   0.0000   0.4204
   1.130   0.8132   0.01907   0.01337  -0.1495  0.3377  0.0205  -2.6239   0.0000   0.0000   0.0000   0.4201
   1.140   0.8141   0.01909   0.01338  -0.1495  0.3377  0.0205  -2.6250   0.0000   0.0000   0.0000   0.4198
   1.150   0.8151   0.01910   0.01340  -0.1494  0.3377  0.0205  -2.6261   0.0000   0.0000   0.0000   0.4195
   1.160   0.8160   0.01912   0.01342  -0.1494  0.3377  0.0205  -2.6272   0.0000   0.0000   0.0000   0.4192
   1.170   0.8170   0.01914   0.01343  -0.1494  0.3376  0.0205  -2.6283   0.0000   0.0000   0.0000   0.4189
   1.180   0.8179   0.01915   0.01345  -0.1493  0.3376  0.0205  -2.6294   0.0000   0.0000   0.0000   0.4186
   1.190   0.8188   0.01917   0.01347  -0.1493  0.3376  0.0206  -2.6305   0.0000   0.0000   0.0000   0.4183
   1.200   0.8197   0.01919   0.01349  -0.1492  0.3376  0.0206  -2.6315   0.0000   0.0000   0.0000   0.4180
   1.210   0.8206   0.01921   0.01350  -0.1492  0.3376  0.0206  -2.6326   0.0000   0.0000   0.0000   0.4177
   1.220   0.8215   0.01922   0.01352  -0.1491  0.3376  0.0206  -2.6336   0.0000   0.0000   0.0000   0.4174
   1.230   0.8224   0.01924   0.01354  -0.1491  0.3376  0.0206  -2.6346   0.0000   0.0000   0.0000   0.4171
   1.240   0.8233   0.01926   0.01356  -0.1490  0.3375  0.0206  -2.6356   0.0000   0.0000   0.0000   0.4168
   1.250   0.8241   0.01928   0.01358  -0.1490  0.3375  0.0206  -2.6366   0.0000   0.0000   0.0000   0.4165
   1.260   0.8250   0.01930   0.01361  -0.1489  0.3375  0.0206  -2.6376   0.0000   0.0000   0.0000   0.4162
   1.270   0.8258   0.01932   0.01363  -0.1489  0.3375  0.0207  -2.6385   0.0000   0.0000   0.0000   0.4160
   1.280   0.8266   0.01935   0.01365  -0.1488  0.3375  0.0207  -2.6395   0.0000   0.0000   0.0000   0.4157
   1.290   0.8274   0.01937   0.01367  -0.1488  0.3375  0.0207  -2.6404   0.0000   0.0000   0.0000   0.4154
   1.300   0.8282   0.01939   0.01369  -0.1487  0.3375  0.0207  -2.6414   0.0000   0.0000   0.0000   0.4151
   1.310   0.8290   0.01941   0.01372  -0.1486  0.3374  0.0208  -2.6423   0.0000   0.0000   0.0000   0.4148
   1.320   0.8299   0.01943   0.01374  -0.1486  0.3374  0.0208  -2.6433   0.0000   0.0000   0.0000   0.4146
   1.330   0.8307   0.01946   0.01376  -0.1485  0.3374  0.0208  -2.6442   0.0000   0.0000   0.0000   0.4143
   1.340   0.8315   0.01948   0.01379  -0.1485  0.3374  0.0208  -2.6451   0.0000   0.0000   0.0000   0.4140
   1.350   0.8323   0.01950   0.01381  -0.1484  0.3374  0.0209  -2.6460   0.0000   0.0000   0.0000   0.4137
   1.360   0.8331   0.01952   0.01383  -0.1484  0.3374  0.0209  -2.6470   0.0000   0.0000   0.0000   0.4134
   1.370   0.8339   0.01954   0.01385  -0.1483  0.3374  0.0209  -2.6479   0.0000   0.0000   0.0000   0.4132
   1.380   0.8347   0.01957   0.01388  -0.1482  0.3373  0.0209  -2.6489   0.0000   0.0000   0.0000   0.4129
   1.390   0.8355   0.01959   0.01390  -0.1482  0.3373  0.0210  -2.6498   0.0000   0.0000   0.0000   0.4126
   1.400   0.8364   0.01961   0.01392  -0.1481  0.3373  0.0210  -2.6508   0.0000   0.0000   0.0000   0.4123
   1.410   0.8372   0.01963   0.01394  -0.1481  0.3373  0.0211  -2.6518   0.0000   0.0000   0.0000   0.4120
   1.420   0.8381   0.01965   0.01396  -0.1480  0.3373  0.0211  -2.6528   0.0000   0.0000   0.0000   0.4118
   1.430   0.8389   0.01967   0.01398  -0.1480  0.3373  0.0211  -2.6537   0.0000   0.0000   0.0000   0.4115
   1.440   0.8398   0.01969   0.01401  -0.1479  0.3373  0.0212  -2.6547   0.0000   0.0000   0.0000   0.4112
   1.450   0.8407   0.01971   0.01403  -0.1479  0.3372  0.0212  -2.6557   0.0000   0.0000   0.0000   0.4109
   1.460   0.8415   0.01973   0.01405  -0.1478  0.3372  0.0212  -2.6567   0.0000   0.0000   0.0000   0.4107
   1.470   0.8424   0.01975   0.01407  -0.1478  0.3372  0.0213  -2.6577   0.0000   0.0000   0.0000   0.4104
   1.480   0.8433   0.01977   0.01409  -0.1477  0.3372  0.0213  -2.6588   0.0000   0.0000   0.0000   0.4101
   1.490   0.8442   0.01979   0.01411  -0.1477  0.3372  0.0214  -2.6598   0.0000   0.0000   0.0000   0.4098
   1.500   0.8450   0.01981   0.01413  -0.1476  0.3372  0.0214  -2.6608   0.0000   0.0000   0.0000   0.4096
   1.510   0.8459   0.01983   0.01415  -0.1476  0.3372  0.0215  -2.6618   0.0000   0.0000   0.0000   0.4093
   1.520   0.8468   0.01985   0.01417  -0.1476  0.3371  0.0215  -2.6628   0.0000   0.0000   0.0000   0.4090
   1.530   0.8477   0.01987   0.01419  -0.1475  0.3371  0.0215  -2.6639   0.0000   0.0000   0.0000   0.4087
   1.540   0.8486   0.01989   0.01421  -0.1475  0.3371  0.0216  -2.6649   0.0000   0.0000   0.0000   0.4085
   1.550   0.8495   0.01991   0.01423  -0.1474  0.3371  0.0216  -2.6659   0.0000   0.0000   0.0000   0.4082
   1.560   0.8504   0.01993   0.01425  -0.1474  0.3371  0.0217  -2.6669   0.0000   0.0000   0.0000   0.4079
   1.570   0.8513   0.01994   0.01427  -0.1473  0.3371  0.0217  -2.6680   0.0000   0.0000   0.0000   0.4076
   1.580   0.8522   0.01996   0.01429  -0.1473  0.3371  0.0218  -2.6690   0.0000   0.0000   0.0000   0.4074
   1.590   0.8531   0.01998   0.01431  -0.1472  0.3370  0.0218  -2.6701   0.0000   0.0000   0.0000   0.4071
   1.600   0.8540   0.02000   0.01432  -0.1472  0.3370  0.0219  -2.6711   0.0000   0.0000   0.0000   0.4068
   1.610   0.8549   0.02002   0.01434  -0.1471  0.3370  0.0219  -2.6721   0.0000   0.0000   0.0000   0.4066
   1.620   0.8558   0.02004   0.01436  -0.1471  0.3370  0.0219  -2.6732   0.0000   0.0000   0.0000   0.4063
   1.630   0.8567   0.02006   0.01438  -0.1471  0.3370  0.0220  -2.6742   0.0000   0.0000   0.0000   0.4060
   1.640   0.8576   0.02007   0.01440  -0.1470  0.3370  0.0220  -2.6753   0.0000   0.0000   0.0000   0.4057
   1.650   0.8585   0.02009   0.01442  -0.1470  0.3370  0.0221  -2.6763   0.0000   0.0000   0.0000   0.4055
   1.660   0.8594   0.02011   0.01444  -0.1469  0.3369  0.0221  -2.6774   0.0000   0.0000   0.0000   0.4052
   1.670   0.8603   0.02013   0.01446  -0.1469  0.3369  0.0222  -2.6784   0.0000   0.0000   0.0000   0.4049
   1.680   0.8612   0.02015   0.01448  -0.1468  0.3369  0.0222  -2.6795   0.0000   0.0000   0.0000   0.4047
   1.690   0.8622   0.02017   0.01450  -0.1468  0.3369  0.0222  -2.6805   0.0000   0.0000   0.0000   0.4044
   1.700   0.8631   0.02019   0.01452  -0.1468  0.3369  0.0223  -2.6816   0.0000   0.0000   0.0000   0.4041
   1.710   0.8640   0.02020   0.01454  -0.1467  0.3369  0.0223  -2.6826   0.0000   0.0000   0.0000   0.4039
   1.720   0.8649   0.02022   0.01456  -0.1467  0.3369  0.0224  -2.6837   0.0000   0.0000   0.0000   0.4036
   1.730   0.8658   0.02024   0.01457  -0.1466  0.3368  0.0224  -2.6847   0.0000   0.0000   0.0000   0.4034
   1.740   0.8667   0.02026   0.01459  -0.1466  0.3368  0.0224  -2.6858   0.0000   0.0000   0.0000   0.4031
   1.750   0.8676   0.02028   0.01461  -0.1465  0.3368  0.0225  -2.6868   0.0000   0.0000   0.0000   0.4028
   1.760   0.8685   0.02030   0.01463  -0.1465  0.3368  0.0225  -2.6879   0.0000   0.0000   0.0000   0.4026
   1.770   0.8695   0.02032   0.01465  -0.1465  0.3368  0.0225  -2.6889   0.0000   0.0000   0.0000   0.4023
   1.780   0.8704   0.02033   0.01467  -0.1464  0.3368  0.0226  -2.6900   0.0000   0.0000   0.0000   0.4020
   1.790   0.8713   0.02035   0.01469  -0.1464  0.3368  0.0226  -2.6910   0.0000   0.0000   0.0000   0.4018
   1.800   0.8722   0.02037   0.01471  -0.1463  0.3367  0.0226  -2.6921   0.0000   0.0000   0.0000   0.4015
   1.810   0.8731   0.02039   0.01473  -0.1463  0.3367  0.0227  -2.6931   0.0000   0.0000   0.0000   0.4013
   1.820   0.8740   0.02041   0.01475  -0.1462  0.3367  0.0227  -2.6942   0.0000   0.0000   0.0000   0.4010
   1.830   0.8749   0.02043   0.01477  -0.1462  0.3367  0.0227  -2.6952   0.0000   0.0000   0.0000   0.4007
   1.840   0.8759   0.02045   0.01478  -0.1462  0.3367  0.0227  -2.6963   0.0000   0.0000   0.0000   0.4005
   1.850   0.8768   0.02046   0.01480  -0.1461  0.3367  0.0228  -2.6973   0.0000   0.0000   0.0000   0.4002
   1.860   0.8777   0.02048   0.01482  -0.1461  0.3367  0.0228  -2.6984   0.0000   0.0000   0.0000   0.4000
   1.870   0.8786   0.02050   0.01484  -0.1460  0.3366  0.0228  -2.6994   0.0000   0.0000   0.0000   0.3997
   1.880   0.8795   0.02052   0.01486  -0.1460  0.3366  0.0228  -2.7005   0.0000   0.0000   0.0000   0.3995
   1.890   0.8804   0.02054   0.01488  -0.1459  0.3366  0.0229  -2.7015   0.0000   0.0000   0.0000   0.3992
   1.900   0.8813   0.02056   0.01490  -0.1459  0.3366  0.0229  -2.7026   0.0000   0.0000   0.0000   0.3990
   1.910   0.8822   0.02058   0.01492  -0.1459  0.3366  0.0229  -2.7036   0.0000   0.0000   0.0000   0.3987
   1.920   0.8831   0.02060   0.01494  -0.1458  0.3366  0.0229  -2.7046   0.0000   0.0000   0.0000   0.3985
   1.930   0.8839   0.02062   0.01497  -0.1458  0.3366  0.0229  -2.7056   0.0000   0.0000   0.0000   0.3982
   1.940   0.8848   0.02064   0.01499  -0.1457  0.3365  0.0229  -2.7065   0.0000   0.0000   0.0000   0.3980
   1.950   0.8856   0.02067   0.01501  -0.1457  0.3365  0.0230  -2.7075   0.0000   0.0000   0.0000   0.3977
   1.960   0.8864   0.02069   0.01504  -0.1456  0.3365  0.0230  -2.7084   0.0000   0.0000   0.0000   0.3975
   1.970   0.8872   0.02072   0.01506  -0.1456  0.3365  0.0230  -2.7093   0.0000   0.0000   0.0000   0.3972
   1.980   0.8880   0.02074   0.01509  -0.1455  0.3365  0.0230  -2.7102   0.0000   0.0000   0.0000   0.3970
   1.990   0.8888   0.02077   0.01511  -0.1454  0.3365  0.0230  -2.7111   0.0000   0.0000   0.0000   0.3967
   2.000   0.8896   0.02079   0.01514  -0.1454  0.3365  0.0230  -2.7120   0.0000   0.0000   0.0000   0.3965
   2.010   0.8903   0.02082   0.01517  -0.1453  0.3364  0.0230  -2.7128   0.0000   0.0000   0.0000   0.3963
   2.020   0.8911   0.02084   0.01519  -0.1453  0.3364  0.0230  -2.7137   0.0000   0.0000   0.0000   0.3960
   2.030   0.8919   0.02087   0.01522  -0.1452  0.3364  0.0230  -2.7146   0.0000   0.0000   0.0000   0.3958
   2.040   0.8927   0.02089   0.01525  -0.1452  0.3364  0.0231  -2.7155   0.0000   0.0000   0.0000   0.3955
   2.050   0.8934   0.02092   0.01527  -0.1451  0.3364  0.0231  -2.7163   0.0000   0.0000   0.0000   0.3953
   2.060   0.8942   0.02095   0.01530  -0.1451  0.3364  0.0231  -2.7172   0.0000   0.0000   0.0000   0.3951
   2.070   0.8950   0.02097   0.01533  -0.1450  0.3364  0.0231  -2.7181   0.0000   0.0000   0.0000   0.3948
   2.080   0.8958   0.02100   0.01535  -0.1449  0.3363  0.0231  -2.7190   0.0000   0.0000   0.0000   0.3946
   2.090   0.8966   0.02102   0.01538  -0.1449  0.3363  0.0231  -2.7199   0.0000   0.0000   0.0000   0.3944
   2.100   0.8974   0.02105   0.01540  -0.1448  0.3363  0.0231  -2.7208   0.0000   0.0000   0.0000   0.3941
   2.110   0.8982   0.02107   0.01543  -0.1448  0.3363  0.0231  -2.7217   0.0000   0.0000   0.0000   0.3939
   2.120   0.8990   0.02109   0.01545  -0.1447  0.3363  0.0231  -2.7227   0.0000   0.0000   0.0000   0.3936
   2.130   0.8999   0.02112   0.01548  -0.1447  0.3363  0.0231  -2.7236   0.0000   0.0000   0.0000   0.3934
   2.140   0.9007   0.02114   0.01550  -0.1446  0.3363  0.0232  -2.7245   0.0000   0.0000   0.0000   0.3932
   2.150   0.9015   0.02116   0.01552  -0.1446  0.3362  0.0232  -2.7255   0.0000   0.0000   0.0000   0.3929
   2.160   0.9024   0.02119   0.01555  -0.1446  0.3362  0.0232  -2.7264   0.0000   0.0000   0.0000   0.3927
   2.170   0.9032   0.02121   0.01557  -0.1445  0.3362  0.0232  -2.7274   0.0000   0.0000   0.0000   0.3925
   2.180   0.9041   0.02123   0.01559  -0.1445  0.3362  0.0232  -2.7284   0.0000   0.0000   0.0000   0.3922
   2.190   0.9049   0.02126   0.01562  -0.1444  0.3362  0.0232  -2.7293   0.0000   0.0000   0.0000   0.3920
   2.200   0.9058   0.02128   0.01564  -0.1444  0.3362  0.0232  -2.7303   0.0000   0.0000   0.0000   0.3918
   2.210   0.9066   0.02130   0.01566  -0.1443  0.3362  0.0232  -2.7313   0.0000   0.0000   0.0000   0.3915
   2.220   0.9075   0.02132   0.01569  -0.1443  0.3362  0.0232  -2.7322   0.0000   0.0000   0.0000   0.3913
   2.230   0.9084   0.02134   0.01571  -0.1442  0.3361  0.0233  -2.7332   0.0000   0.0000   0.0000   0.3910
   2.240   0.9092   0.02137   0.01573  -0.1442  0.3361  0.0233  -2.7342   0.0000   0.0000   0.0000   0.3908
   2.250   0.9101   0.02139   0.01575  -0.1441  0.3361  0.0233  -2.7352   0.0000   0.0000   0.0000   0.3906
   2.260   0.9110   0.02141   0.01578  -0.1441  0.3361  0.0233  -2.7362   0.0000   0.0000   0.0000   0.3903
   2.270   0.9118   0.02143   0.01580  -0.1441  0.3361  0.0233  -2.7372   0.0000   0.0000   0.0000   0.3901
   2.280   0.9127   0.02145   0.01582  -0.1440  0.3361  0.0233  -2.7382   0.0000   0.0000   0.0000   0.3899
   2.290   0.9136   0.02147   0.01584  -0.1440  0.3361  0.0233  -2.7392   0.0000   0.0000   0.0000   0.3896
   2.300   0.9145   0.02150   0.01586  -0.1439  0.3360  0.0233  -2.7402   0.0000   0.0000   0.0000   0.3894
   2.310   0.9154   0.02152   0.01589  -0.1439  0.3360  0.0233  -2.7412   0.0000   0.0000   0.0000   0.3892
   2.320   0.9162   0.02154   0.01591  -0.1438  0.3360  0.0234  -2.7422   0.0000   0.0000   0.0000   0.3890
   2.330   0.9171   0.02156   0.01593  -0.1438  0.3360  0.0234  -2.7432   0.0000   0.0000   0.0000   0.3887
   2.340   0.9180   0.02158   0.01595  -0.1438  0.3360  0.0234  -2.7442   0.0000   0.0000   0.0000   0.3885
   2.350   0.9189   0.02160   0.01597  -0.1437  0.3360  0.0234  -2.7452   0.0000   0.0000   0.0000   0.3883
   2.360   0.9198   0.02162   0.01600  -0.1437  0.3360  0.0234  -2.7462   0.0000   0.0000   0.0000   0.3880
   2.370   0.9207   0.02164   0.01602  -0.1436  0.3359  0.0234  -2.7472   0.0000   0.0000   0.0000   0.3878
   2.380   0.9215   0.02166   0.01604  -0.1436  0.3359  0.0234  -2.7482   0.0000   0.0000   0.0000   0.3876
   2.390   0.9224   0.02169   0.01606  -0.1435  0.3359  0.0234  -2.7492   0.0000   0.0000   0.0000   0.3873
   2.400   0.9233   0.02171   0.01608  -0.1435  0.3359  0.0235  -2.7502   0.0000   0.0000   0.0000   0.3871
   2.410   0.9242   0.02173   0.01610  -0.1435  0.3359  0.0235  -2.7512   0.0000   0.0000   0.0000   0.3869
   2.420   0.9251   0.02175   0.01612  -0.1434  0.3359  0.0235  -2.7522   0.0000   0.0000   0.0000   0.3867
   2.430   0.9260   0.02177   0.01615  -0.1434  0.3359  0.0235  -2.7532   0.0000   0.0000   0.0000   0.3864
   2.440   0.9269   0.02179   0.01617  -0.1433  0.3358  0.0235  -2.7542   0.0000   0.0000   0.0000   0.3862
   2.450   0.9278   0.02181   0.01619  -0.1433  0.3358  0.0235  -2.7552   0.0000   0.0000   0.0000   0.3860
   2.460   0.9287   0.02183   0.01621  -0.1432  0.3358  0.0235  -2.7562   0.0000   0.0000   0.0000   0.3858
   2.470   0.9295   0.02185   0.01623  -0.1432  0.3358  0.0235  -2.7573   0.0000   0.0000   0.0000   0.3855
   2.480   0.9304   0.02187   0.01625  -0.1432  0.3358  0.0236  -2.7583   0.0000   0.0000   0.0000   0.3853
   2.490   0.9313   0.02190   0.01628  -0.1431  0.3358  0.0236  -2.7593   0.0000   0.0000   0.0000   0.3851
   2.500   0.9322   0.02192   0.01630  -0.1431  0.3358  0.0236  -2.7603   0.0000   0.0000   0.0000   0.3849
   2.510   0.9331   0.02194   0.01632  -0.1430  0.3358  0.0236  -2.7613   0.0000   0.0000   0.0000   0.3846
   2.520   0.9340   0.02196   0.01634  -0.1430  0.3357  0.0236  -2.7623   0.0000   0.0000   0.0000   0.3844
   2.530   0.9349   0.02198   0.01636  -0.1430  0.3357  0.0236  -2.7633   0.0000   0.0000   0.0000   0.3842
   2.540   0.9358   0.02200   0.01638  -0.1429  0.3357  0.0236  -2.7643   0.0000   0.0000   0.0000   0.3840
   2.550   0.9367   0.02202   0.01641  -0.1429  0.3357  0.0236  -2.7653   0.0000   0.0000   0.0000   0.3838
   2.560   0.9375   0.02204   0.01643  -0.1428  0.3357  0.0237  -2.7663   0.0000   0.0000   0.0000   0.3835
   2.570   0.9384   0.02206   0.01645  -0.1428  0.3357  0.0237  -2.7673   0.0000   0.0000   0.0000   0.3833
   2.580   0.9393   0.02209   0.01647  -0.1427  0.3357  0.0237  -2.7683   0.0000   0.0000   0.0000   0.3831
   2.590   0.9402   0.02211   0.01649  -0.1427  0.3356  0.0237  -2.7693   0.0000   0.0000   0.0000   0.3829
   2.600   0.9411   0.02213   0.01652  -0.1427  0.3356  0.0237  -2.7703   0.0000   0.0000   0.0000   0.3827
   2.610   0.9420   0.02215   0.01654  -0.1426  0.3356  0.0237  -2.7714   0.0000   0.0000   0.0000   0.3824
   2.620   0.9428   0.02217   0.01656  -0.1426  0.3356  0.0237  -2.7724   0.0000   0.0000   0.0000   0.3822
   2.630   0.9437   0.02220   0.01658  -0.1425  0.3356  0.0238  -2.7734   0.0000   0.0000   0.0000   0.3820
   2.640   0.9445   0.02222   0.01661  -0.1425  0.3356  0.0238  -2.7744   0.0000   0.0000   0.0000   0.3818
   2.650   0.9453   0.02224   0.01663  -0.1424  0.3356  0.0238  -2.7753   0.0000   0.0000   0.0000   0.3816
   2.660   0.9461   0.02227   0.01666  -0.1424  0.3355  0.0238  -2.7763   0.0000   0.0000   0.0000   0.3814
   2.670   0.9469   0.02230   0.01669  -0.1423  0.3355  0.0238  -2.7772   0.0000   0.0000   0.0000   0.3812
   2.680   0.9477   0.02232   0.01672  -0.1423  0.3355  0.0238  -2.7781   0.0000   0.0000   0.0000   0.3809
   2.690   0.9484   0.02235   0.01675  -0.1422  0.3355  0.0238  -2.7789   0.0000   0.0000   0.0000   0.3807
   2.700   0.9492   0.02238   0.01678  -0.1422  0.3355  0.0239  -2.7798   0.0000   0.0000   0.0000   0.3805
   2.710   0.9499   0.02241   0.01681  -0.1421  0.3355  0.0239  -2.7807   0.0000   0.0000   0.0000   0.3803
   2.720   0.9506   0.02244   0.01684  -0.1421  0.3355  0.0239  -2.7815   0.0000   0.0000   0.0000   0.3801
   2.730   0.9514   0.02247   0.01687  -0.1420  0.3354  0.0239  -2.7823   0.0000   0.0000   0.0000   0.3799
   2.740   0.9521   0.02250   0.01690  -0.1420  0.3354  0.0239  -2.7832   0.0000   0.0000   0.0000   0.3797
   2.750   0.9528   0.02253   0.01693  -0.1419  0.3354  0.0239  -2.7840   0.0000   0.0000   0.0000   0.3795
   2.760   0.9535   0.02256   0.01696  -0.1418  0.3354  0.0239  -2.7849   0.0000   0.0000   0.0000   0.3793
   2.770   0.9542   0.02259   0.01699  -0.1418  0.3354  0.0240  -2.7857   0.0000   0.0000   0.0000   0.3791
   2.780   0.9550   0.02262   0.01702  -0.1417  0.3354  0.0240  -2.7866   0.0000   0.0000   0.0000   0.3789
   2.790   0.9557   0.02265   0.01705  -0.1417  0.3354  0.0240  -2.7875   0.0000   0.0000   0.0000   0.3787
   2.800   0.9565   0.02267   0.01708  -0.1416  0.3354  0.0240  -2.7883   0.0000   0.0000   0.0000   0.3785
   2.810   0.9573   0.02270   0.01711  -0.1416  0.3353  0.0241  -2.7892   0.0000   0.0000   0.0000   0.3783
   2.820   0.9581   0.02273   0.01713  -0.1415  0.3353  0.0241  -2.7901   0.0000   0.0000   0.0000   0.3781
   2.830   0.9588   0.02276   0.01716  -0.1415  0.3353  0.0241  -2.7911   0.0000   0.0000   0.0000   0.3778
   2.840   0.9596   0.02278   0.01719  -0.1414  0.3353  0.0242  -2.7920   0.0000   0.0000   0.0000   0.3776
   2.850   0.9604   0.02281   0.01722  -0.1414  0.3353  0.0242  -2.7929   0.0000   0.0000   0.0000   0.3774
   2.860   0.9612   0.02284   0.01724  -0.1413  0.3353  0.0242  -2.7938   0.0000   0.0000   0.0000   0.3772
   2.870   0.9621   0.02286   0.01727  -0.1413  0.3353  0.0243  -2.7948   0.0000   0.0000   0.0000   0.3770
   2.880   0.9629   0.02289   0.01730  -0.1412  0.3352  0.0244  -2.7957   0.0000   0.0000   0.0000   0.3768
   2.890   0.9637   0.02291   0.01732  -0.1412  0.3352  0.0244  -2.7967   0.0000   0.0000   0.0000   0.3766
   2.900   0.9645   0.02294   0.01735  -0.1411  0.3352  0.0245  -2.7976   0.0000   0.0000   0.0000   0.3764
   2.910   0.9653   0.02296   0.01738  -0.1411  0.3352  0.0245  -2.7986   0.0000   0.0000   0.0000   0.3762
   2.920   0.9662   0.02299   0.01740  -0.1411  0.3352  0.0246  -2.7996   0.0000   0.0000   0.0000   0.3760
   2.930   0.9670   0.02301   0.01743  -0.1410  0.3352  0.0247  -2.8006   0.0000   0.0000   0.0000   0.3758
   2.940   0.9678   0.02304   0.01745  -0.1410  0.3352  0.0247  -2.8015   0.0000   0.0000   0.0000   0.3756
   2.950   0.9687   0.02306   0.01748  -0.1409  0.3352  0.0248  -2.8025   0.0000   0.0000   0.0000   0.3754
   2.960   0.9695   0.02309   0.01750  -0.1409  0.3351  0.0249  -2.8035   0.0000   0.0000   0.0000   0.3752
   2.970   0.9704   0.02311   0.01753  -0.1408  0.3351  0.0249  -2.8045   0.0000   0.0000   0.0000   0.3750
   2.980   0.9712   0.02313   0.01755  -0.1408  0.3351  0.0250  -2.8055   0.0000   0.0000   0.0000   0.3748
   2.990   0.9721   0.02316   0.01758  -0.1408  0.3351  0.0251  -2.8065   0.0000   0.0000   0.0000   0.3746
   3.000   0.9729   0.02318   0.01760  -0.1407  0.3351  0.0251  -2.8075   0.0000   0.0000   0.0000   0.3744
   3.010   0.9738   0.02321   0.01763  -0.1407  0.3351  0.0252  -2.8084   0.0000   0.0000   0.0000   0.3742
   3.020   0.9746   0.02323   0.01765  -0.1406  0.3351  0.0253  -2.8094   0.0000   0.0000   0.0000   0.3740
   3.030   0.9755   0.02325   0.01768  -0.1406  0.3350  0.0253  -2.8104   0.0000   0.0000   0.0000   0.3738
   3.040   0.9763   0.02328   0.01770  -0.1405  0.3350  0.0254  -2.8114   0.0000   0.0000   0.0000   0.3736
   3.050   0.9772   0.02330   0.01772  -0.1405  0.3350  0.0255  -2.8124   0.0000   0.0000   0.0000   0.3734
   3.060   0.9781   0.02332   0.01775  -0.1405  0.3350  0.0255  -2.8135   0.0000   0.0000   0.0000   0.3732
   3.070   0.9789   0.02335   0.01777  -0.1404  0.3350  0.0256  -2.8145   0.0000   0.0000   0.0000   0.3730
   3.080   0.9798   0.02337   0.01780  -0.1404  0.3350  0.0257  -2.8155   0.0000   0.0000   0.0000   0.3728
   3.090   0.9806   0.02339   0.01782  -0.1403  0.3350  0.0257  -2.8165   0.0000   0.0000   0.0000   0.3726
   3.100   0.9815   0.02342   0.01784  -0.1403  0.3350  0.0258  -2.8175   0.0000   0.0000   0.0000   0.3724
   3.110   0.9824   0.02344   0.01787  -0.1403  0.3349  0.0258  -2.8185   0.0000   0.0000   0.0000   0.3722
   3.120   0.9832   0.02346   0.01789  -0.1402  0.3349  0.0259  -2.8195   0.0000   0.0000   0.0000   0.3720
   3.130   0.9841   0.02349   0.01792  -0.1402  0.3349  0.0260  -2.8205   0.0000   0.0000   0.0000   0.3718
   3.140   0.9850   0.02351   0.01794  -0.1401  0.3349  0.0260  -2.8215   0.0000   0.0000   0.0000   0.3716
   3.150   0.9858   0.02353   0.01797  -0.1401  0.3349  0.0261  -2.8225   0.0000   0.0000   0.0000   0.3714
   3.160   0.9867   0.02356   0.01799  -0.1400  0.3349  0.0262  -2.8235   0.0000   0.0000   0.0000   0.3712
   3.170   0.9876   0.02358   0.01801  -0.1400  0.3349  0.0263  -2.8245   0.0000   0.0000   0.0000   0.3710
   3.180   0.9884   0.02360   0.01804  -0.1400  0.3349  0.0263  -2.8256   0.0000   0.0000   0.0000   0.3708
   3.190   0.9893   0.02363   0.01806  -0.1399  0.3348  0.0264  -2.8266   0.0000   0.0000   0.0000   0.3706
   3.200   0.9902   0.02365   0.01809  -0.1399  0.3348  0.0265  -2.8276   0.0000   0.0000   0.0000   0.3704
   3.210   0.9910   0.02367   0.01811  -0.1398  0.3348  0.0266  -2.8286   0.0000   0.0000   0.0000   0.3702
   3.220   0.9919   0.02370   0.01813  -0.1398  0.3348  0.0266  -2.8296   0.0000   0.0000   0.0000   0.3700
   3.230   0.9928   0.02372   0.01816  -0.1398  0.3348  0.0267  -2.8306   0.0000   0.0000   0.0000   0.3698
   3.250   0.9945   0.02377   0.01821  -0.1397  0.3348  0.0268  -2.8326   0.0000   0.0000   0.0000   0.3695
   3.260   0.9954   0.02379   0.01823  -0.1396  0.3348  0.0269  -2.8336   0.0000   0.0000   0.0000   0.3693
   3.270   0.9962   0.02381   0.01825  -0.1396  0.3347  0.0270  -2.8346   0.0000   0.0000   0.0000   0.3691
   3.280   0.9971   0.02384   0.01828  -0.1396  0.3347  0.0271  -2.8356   0.0000   0.0000   0.0000   0.3689
   3.290   0.9980   0.02386   0.01830  -0.1395  0.3347  0.0272  -2.8366   0.0000   0.0000   0.0000   0.3687
   3.300   0.9988   0.02388   0.01833  -0.1395  0.3347  0.0273  -2.8376   0.0000   0.0000   0.0000   0.3685
   3.310   0.9997   0.02391   0.01835  -0.1394  0.3347  0.0273  -2.8387   0.0000   0.0000   0.0000   0.3683
   3.320   1.0006   0.02393   0.01838  -0.1394  0.3347  0.0274  -2.8397   0.0000   0.0000   0.0000   0.3681
   3.330   1.0014   0.02396   0.01840  -0.1394  0.3347  0.0275  -2.8407   0.0000   0.0000   0.0000   0.3679
   3.340   1.0023   0.02398   0.01842  -0.1393  0.3347  0.0275  -2.8417   0.0000   0.0000   0.0000   0.3677
   3.350   1.0032   0.02400   0.01845  -0.1393  0.3346  0.0276  -2.8427   0.0000   0.0000   0.0000   0.3675
   3.360   1.0040   0.02403   0.01847  -0.1392  0.3346  0.0277  -2.8437   0.0000   0.0000   0.0000   0.3674
   3.370   1.0049   0.02405   0.01850  -0.1392  0.3346  0.0277  -2.8447   0.0000   0.0000   0.0000   0.3672
   3.380   1.0057   0.02407   0.01852  -0.1392  0.3346  0.0278  -2.8456   0.0000   0.0000   0.0000   0.3670
   3.390   1.0066   0.02410   0.01855  -0.1391  0.3346  0.0279  -2.8466   0.0000   0.0000   0.0000   0.3668
   3.400   1.0074   0.02413   0.01858  -0.1391  0.3346  0.0279  -2.8475   0.0000   0.0000   0.0000   0.3666
   3.410   1.0082   0.02415   0.01860  -0.1390  0.3346  0.0279  -2.8485   0.0000   0.0000   0.0000   0.3664
   3.420   1.0090   0.02418   0.01863  -0.1390  0.3346  0.0280  -2.8493   0.0000   0.0000   0.0000   0.3662
   3.430   1.0097   0.02421   0.01866  -0.1389  0.3345  0.0280  -2.8502   0.0000   0.0000   0.0000   0.3660
   3.440   1.0104   0.02424   0.01870  -0.1389  0.3345  0.0281  -2.8510   0.0000   0.0000   0.0000   0.3659
   3.450   1.0112   0.02427   0.01873  -0.1388  0.3345  0.0281  -2.8518   0.0000   0.0000   0.0000   0.3657
   3.460   1.0119   0.02431   0.01876  -0.1388  0.3345  0.0281  -2.8526   0.0000   0.0000   0.0000   0.3655
   3.470   1.0126   0.02434   0.01880  -0.1387  0.3345  0.0282  -2.8534   0.0000   0.0000   0.0000   0.3653
   3.480   1.0133   0.02437   0.01883  -0.1387  0.3345  0.0282  -2.8542   0.0000   0.0000   0.0000   0.3651
   3.490   1.0140   0.02441   0.01887  -0.1386  0.3345  0.0282  -2.8550   0.0000   0.0000   0.0000   0.3650
   3.500   1.0147   0.02444   0.01890  -0.1386  0.3345  0.0283  -2.8558   0.0000   0.0000   0.0000   0.3648
   3.510   1.0154   0.02447   0.01893  -0.1385  0.3344  0.0283  -2.8565   0.0000   0.0000   0.0000   0.3646
   3.520   1.0160   0.02451   0.01897  -0.1385  0.3344  0.0283  -2.8573   0.0000   0.0000   0.0000   0.3644
   3.530   1.0167   0.02454   0.01900  -0.1384  0.3344  0.0284  -2.8580   0.0000   0.0000   0.0000   0.3643
   3.540   1.0174   0.02457   0.01904  -0.1383  0.3344  0.0284  -2.8588   0.0000   0.0000   0.0000   0.3641
   3.550   1.0181   0.02461   0.01907  -0.1383  0.3344  0.0285  -2.8596   0.0000   0.0000   0.0000   0.3639
   3.560   1.0189   0.02464   0.01910  -0.1382  0.3344  0.0286  -2.8604   0.0000   0.0000   0.0000   0.3637
   3.570   1.0196   0.02467   0.01914  -0.1382  0.3344  0.0286  -2.8613   0.0000   0.0000   0.0000   0.3635
   3.580   1.0203   0.02470   0.01917  -0.1381  0.3344  0.0287  -2.8621   0.0000   0.0000   0.0000   0.3634
   3.590   1.0211   0.02473   0.01920  -0.1381  0.3343  0.0288  -2.8629   0.0000   0.0000   0.0000   0.3632
   3.600   1.0218   0.02476   0.01923  -0.1380  0.3343  0.0288  -2.8638   0.0000   0.0000   0.0000   0.3630
   3.610   1.0226   0.02479   0.01926  -0.1380  0.3343  0.0289  -2.8646   0.0000   0.0000   0.0000   0.3628
   3.620   1.0234   0.02482   0.01929  -0.1380  0.3343  0.0290  -2.8655   0.0000   0.0000   0.0000   0.3627
   3.630   1.0242   0.02485   0.01932  -0.1379  0.3343  0.0291  -2.8664   0.0000   0.0000   0.0000   0.3625
   3.640   1.0249   0.02488   0.01935  -0.1379  0.3343  0.0292  -2.8673   0.0000   0.0000   0.0000   0.3623
   3.650   1.0257   0.02491   0.01938  -0.1378  0.3343  0.0293  -2.8682   0.0000   0.0000   0.0000   0.3621
   3.660   1.0265   0.02494   0.01941  -0.1378  0.3343  0.0294  -2.8691   0.0000   0.0000   0.0000   0.3619
   3.670   1.0273   0.02496   0.01944  -0.1377  0.3342  0.0295  -2.8700   0.0000   0.0000   0.0000   0.3618
   3.680   1.0281   0.02499   0.01947  -0.1377  0.3342  0.0297  -2.8709   0.0000   0.0000   0.0000   0.3616
   3.690   1.0289   0.02502   0.01950  -0.1376  0.3342  0.0298  -2.8718   0.0000   0.0000   0.0000   0.3614
   3.700   1.0297   0.02505   0.01953  -0.1376  0.3342  0.0300  -2.8727   0.0000   0.0000   0.0000   0.3612
   3.710   1.0305   0.02507   0.01955  -0.1376  0.3342  0.0304  -2.8736   0.0000   0.0000   0.0000   0.3611
   3.720   1.0314   0.02510   0.01958  -0.1375  0.3342  0.0308  -2.8745   0.0000   0.0000   0.0000   0.3609
   3.730   1.0322   0.02513   0.01961  -0.1375  0.3342  0.0313  -2.8755   0.0000   0.0000   0.0000   0.3607
   3.740   1.0330   0.02515   0.01964  -0.1374  0.3342  0.0319  -2.8764   0.0000   0.0000   0.0000   0.3605
   3.750   1.0338   0.02518   0.01966  -0.1374  0.3342  0.0328  -2.8773   0.0000   0.0000   0.0000   0.3603
   3.760   1.0346   0.02520   0.01969  -0.1373  0.3342  0.0338  -2.8782   0.0000   0.0000   0.0000   0.3602
   3.770   1.0354   0.02522   0.01971  -0.1373  0.3341  0.0353  -2.8792   0.0000   0.0000   0.0000   0.3600
   3.780   1.0362   0.02524   0.01974  -0.1372  0.3341  0.0372  -2.8801   0.0000   0.0000   0.0000   0.3598
   3.790   1.0370   0.02526   0.01976  -0.1372  0.3341  0.0397  -2.8810   0.0000   0.0000   0.0000   0.3596
   3.800   1.0378   0.02528   0.01978  -0.1371  0.3341  0.0431  -2.8818   0.0000   0.0000   0.0000   0.3595
   3.810   1.0385   0.02530   0.01980  -0.1371  0.3341  0.0474  -2.8827   0.0000   0.0000   0.0000   0.3593
   3.820   1.0392   0.02531   0.01983  -0.1370  0.3341  0.0532  -2.8835   0.0000   0.0000   0.0000   0.3591
   3.830   1.0398   0.02531   0.01985  -0.1369  0.3341  0.0607  -2.8842   0.0000   0.0000   0.0000   0.3589
   3.840   1.0406   0.02533   0.01988  -0.1369  0.3341  0.0634  -2.8851   0.0000   0.0000   0.0000   0.3587
   3.850   1.0414   0.02536   0.01990  -0.1368  0.3341  0.0636  -2.8861   0.0000   0.0000   0.0000   0.3585
   3.860   1.0423   0.02538   0.01993  -0.1368  0.3341  0.0640  -2.8870   0.0000   0.0000   0.0000   0.3584
   3.870   1.0431   0.02541   0.01995  -0.1367  0.3341  0.0646  -2.8880   0.0000   0.0000   0.0000   0.3582
   3.880   1.0440   0.02543   0.01998  -0.1367  0.3341  0.0651  -2.8890   0.0000   0.0000   0.0000   0.3580
   3.890   1.0448   0.02546   0.02001  -0.1367  0.3341  0.0656  -2.8899   0.0000   0.0000   0.0000   0.3579
   3.900   1.0457   0.02548   0.02003  -0.1366  0.3340  0.0660  -2.8909   0.0000   0.0000   0.0000   0.3577
   3.910   1.0465   0.02550   0.02006  -0.1366  0.3340  0.0663  -2.8919   0.0000   0.0000   0.0000   0.3575
   3.920   1.0474   0.02553   0.02009  -0.1365  0.3340  0.0665  -2.8928   0.0000   0.0000   0.0000   0.3573
   3.930   1.0482   0.02555   0.02011  -0.1365  0.3340  0.0667  -2.8938   0.0000   0.0000   0.0000   0.3572
   3.940   1.0491   0.02558   0.02014  -0.1365  0.3340  0.0670  -2.8948   0.0000   0.0000   0.0000   0.3570
   3.950   1.0500   0.02560   0.02016  -0.1364  0.3340  0.0672  -2.8958   0.0000   0.0000   0.0000   0.3568
   3.960   1.0508   0.02563   0.02019  -0.1364  0.3340  0.0675  -2.8968   0.0000   0.0000   0.0000   0.3567
   3.970   1.0517   0.02565   0.02022  -0.1364  0.3340  0.0677  -2.8977   0.0000   0.0000   0.0000   0.3565
   3.980   1.0525   0.02568   0.02024  -0.1363  0.3340  0.0678  -2.8987   0.0000   0.0000   0.0000   0.3563
   3.990   1.0534   0.02570   0.02027  -0.1363  0.3340  0.0680  -2.8997   0.0000   0.0000   0.0000   0.3561
   4.000   1.0543   0.02573   0.02030  -0.1363  0.3340  0.0682  -2.9007   0.0000   0.0000   0.0000   0.3560
   4.010   1.0551   0.02576   0.02032  -0.1362  0.3340  0.0683  -2.9016   0.0000   0.0000   0.0000   0.3558
   4.020   1.0560   0.02578   0.02035  -0.1362  0.3340  0.0684  -2.9026   0.0000   0.0000   0.0000   0.3556
   4.030   1.0569   0.02581   0.02038  -0.1361  0.3339  0.0686  -2.9036   0.0000   0.0000   0.0000   0.3555
   4.040   1.0577   0.02583   0.02040  -0.1361  0.3339  0.0687  -2.9046   0.0000   0.0000   0.0000   0.3553
   4.050   1.0586   0.02586   0.02043  -0.1361  0.3339  0.0688  -2.9055   0.0000   0.0000   0.0000   0.3551
   4.060   1.0594   0.02588   0.02045  -0.1360  0.3339  0.0689  -2.9065   0.0000   0.0000   0.0000   0.3550
   4.070   1.0603   0.02591   0.02048  -0.1360  0.3339  0.0691  -2.9075   0.0000   0.0000   0.0000   0.3548
   4.080   1.0612   0.02593   0.02051  -0.1360  0.3339  0.0692  -2.9085   0.0000   0.0000   0.0000   0.3546
   4.090   1.0620   0.02596   0.02053  -0.1359  0.3339  0.0693  -2.9094   0.0000   0.0000   0.0000   0.3545
   4.100   1.0629   0.02598   0.02056  -0.1359  0.3339  0.0694  -2.9104   0.0000   0.0000   0.0000   0.3543
   4.110   1.0637   0.02601   0.02059  -0.1359  0.3339  0.0695  -2.9114   0.0000   0.0000   0.0000   0.3541
   4.120   1.0646   0.02603   0.02061  -0.1358  0.3339  0.0696  -2.9124   0.0000   0.0000   0.0000   0.3540
   4.130   1.0655   0.02606   0.02064  -0.1358  0.3339  0.0697  -2.9133   0.0000   0.0000   0.0000   0.3538
   4.140   1.0663   0.02609   0.02067  -0.1358  0.3339  0.0698  -2.9143   0.0000   0.0000   0.0000   0.3536
   4.150   1.0672   0.02611   0.02070  -0.1357  0.3339  0.0699  -2.9153   0.0000   0.0000   0.0000   0.3535
   4.160   1.0681   0.02614   0.02072  -0.1357  0.3338  0.0700  -2.9163   0.0000   0.0000   0.0000   0.3533
   4.170   1.0689   0.02617   0.02075  -0.1356  0.3338  0.0701  -2.9172   0.0000   0.0000   0.0000   0.3532
   4.180   1.0697   0.02619   0.02078  -0.1356  0.3338  0.0701  -2.9181   0.0000   0.0000   0.0000   0.3530
   4.190   1.0705   0.02622   0.02081  -0.1356  0.3338  0.0702  -2.9190   0.0000   0.0000   0.0000   0.3528
   4.200   1.0713   0.02625   0.02084  -0.1355  0.3338  0.0702  -2.9199   0.0000   0.0000   0.0000   0.3527
   4.210   1.0721   0.02629   0.02088  -0.1355  0.3338  0.0703  -2.9207   0.0000   0.0000   0.0000   0.3525
   4.220   1.0728   0.02632   0.02091  -0.1354  0.3338  0.0703  -2.9215   0.0000   0.0000   0.0000   0.3524
   4.230   1.0735   0.02635   0.02095  -0.1354  0.3338  0.0703  -2.9223   0.0000   0.0000   0.0000   0.3522
   4.240   1.0742   0.02639   0.02098  -0.1353  0.3338  0.0703  -2.9230   0.0000   0.0000   0.0000   0.3520
   4.250   1.0749   0.02642   0.02102  -0.1353  0.3338  0.0703  -2.9238   0.0000   0.0000   0.0000   0.3519
   4.260   1.0756   0.02646   0.02106  -0.1352  0.3338  0.0704  -2.9245   0.0000   0.0000   0.0000   0.3517
   4.270   1.0763   0.02650   0.02109  -0.1352  0.3338  0.0704  -2.9252   0.0000   0.0000   0.0000   0.3516
   4.280   1.0769   0.02653   0.02113  -0.1351  0.3337  0.0704  -2.9259   0.0000   0.0000   0.0000   0.3514
   4.290   1.0776   0.02657   0.02117  -0.1351  0.3337  0.0704  -2.9266   0.0000   0.0000   0.0000   0.3513
   4.300   1.0783   0.02661   0.02121  -0.1350  0.3337  0.0704  -2.9273   0.0000   0.0000   0.0000   0.3511
   4.310   1.0790   0.02665   0.02125  -0.1350  0.3337  0.0704  -2.9280   0.0000   0.0000   0.0000   0.3509
   4.320   1.0796   0.02668   0.02128  -0.1349  0.3337  0.0704  -2.9287   0.0000   0.0000   0.0000   0.3508
   4.330   1.0803   0.02672   0.02132  -0.1349  0.3337  0.0705  -2.9295   0.0000   0.0000   0.0000   0.3506
   4.340   1.0810   0.02675   0.02136  -0.1348  0.3337  0.0705  -2.9302   0.0000   0.0000   0.0000   0.3505
   4.350   1.0818   0.02679   0.02139  -0.1348  0.3337  0.0705  -2.9310   0.0000   0.0000   0.0000   0.3503
   4.360   1.0825   0.02682   0.02143  -0.1347  0.3337  0.0705  -2.9318   0.0000   0.0000   0.0000   0.3502
   4.370   1.0832   0.02686   0.02146  -0.1347  0.3337  0.0705  -2.9326   0.0000   0.0000   0.0000   0.3500
   4.380   1.0840   0.02689   0.02150  -0.1347  0.3337  0.0705  -2.9334   0.0000   0.0000   0.0000   0.3499
   4.390   1.0847   0.02692   0.02153  -0.1346  0.3337  0.0706  -2.9342   0.0000   0.0000   0.0000   0.3497
   4.400   1.0855   0.02695   0.02156  -0.1346  0.3336  0.0706  -2.9350   0.0000   0.0000   0.0000   0.3495
   4.410   1.0862   0.02699   0.02160  -0.1345  0.3336  0.0706  -2.9358   0.0000   0.0000   0.0000   0.3494
   4.420   1.0870   0.02702   0.02163  -0.1345  0.3336  0.0706  -2.9367   0.0000   0.0000   0.0000   0.3492
   4.430   1.0878   0.02705   0.02166  -0.1345  0.3336  0.0706  -2.9375   0.0000   0.0000   0.0000   0.3491
   4.440   1.0886   0.02708   0.02169  -0.1344  0.3336  0.0706  -2.9384   0.0000   0.0000   0.0000   0.3489
   4.450   1.0894   0.02711   0.02173  -0.1344  0.3336  0.0707  -2.9393   0.0000   0.0000   0.0000   0.3488
   4.460   1.0902   0.02714   0.02176  -0.1343  0.3336  0.0707  -2.9401   0.0000   0.0000   0.0000   0.3486
   4.470   1.0910   0.02717   0.02179  -0.1343  0.3336  0.0707  -2.9410   0.0000   0.0000   0.0000   0.3485
   4.480   1.0918   0.02720   0.02182  -0.1343  0.3336  0.0707  -2.9419   0.0000   0.0000   0.0000   0.3483
   4.490   1.0926   0.02723   0.02185  -0.1342  0.3336  0.0707  -2.9427   0.0000   0.0000   0.0000   0.3482
   4.500   1.0934   0.02726   0.02188  -0.1342  0.3336  0.0707  -2.9436   0.0000   0.0000   0.0000   0.3480
   4.510   1.0942   0.02729   0.02191  -0.1341  0.3336  0.0708  -2.9445   0.0000   0.0000   0.0000   0.3478
   4.520   1.0950   0.02732   0.02194  -0.1341  0.3335  0.0708  -2.9454   0.0000   0.0000   0.0000   0.3477
   4.530   1.0958   0.02735   0.02197  -0.1341  0.3335  0.0708  -2.9463   0.0000   0.0000   0.0000   0.3475
   4.540   1.0966   0.02738   0.02200  -0.1340  0.3335  0.0708  -2.9472   0.0000   0.0000   0.0000   0.3474
   4.550   1.0974   0.02741   0.02203  -0.1340  0.3335  0.0708  -2.9481   0.0000   0.0000   0.0000   0.3472
   4.560   1.0983   0.02744   0.02206  -0.1340  0.3335  0.0708  -2.9490   0.0000   0.0000   0.0000   0.3471
   4.570   1.0991   0.02747   0.02209  -0.1339  0.3335  0.0709  -2.9499   0.0000   0.0000   0.0000   0.3469
   4.580   1.0999   0.02750   0.02212  -0.1339  0.3335  0.0709  -2.9508   0.0000   0.0000   0.0000   0.3468
   4.590   1.1007   0.02753   0.02215  -0.1338  0.3335  0.0709  -2.9517   0.0000   0.0000   0.0000   0.3466
   4.600   1.1016   0.02756   0.02218  -0.1338  0.3335  0.0709  -2.9526   0.0000   0.0000   0.0000   0.3465
   4.610   1.1024   0.02759   0.02221  -0.1338  0.3335  0.0709  -2.9535   0.0000   0.0000   0.0000   0.3463
   4.620   1.1032   0.02761   0.02224  -0.1337  0.3335  0.0709  -2.9544   0.0000   0.0000   0.0000   0.3462
   4.630   1.1041   0.02764   0.02227  -0.1337  0.3334  0.0710  -2.9554   0.0000   0.0000   0.0000   0.3460
   4.640   1.1049   0.02767   0.02230  -0.1337  0.3334  0.0710  -2.9563   0.0000   0.0000   0.0000   0.3459
   4.650   1.1057   0.02770   0.02233  -0.1336  0.3334  0.0710  -2.9572   0.0000   0.0000   0.0000   0.3457
   4.660   1.1065   0.02773   0.02236  -0.1336  0.3334  0.0710  -2.9581   0.0000   0.0000   0.0000   0.3456
   4.670   1.1074   0.02776   0.02239  -0.1336  0.3334  0.0710  -2.9590   0.0000   0.0000   0.0000   0.3454
   4.680   1.1082   0.02779   0.02242  -0.1335  0.3334  0.0711  -2.9599   0.0000   0.0000   0.0000   0.3453
   4.690   1.1090   0.02782   0.02245  -0.1335  0.3334  0.0711  -2.9608   0.0000   0.0000   0.0000   0.3451
   4.700   1.1099   0.02785   0.02248  -0.1335  0.3334  0.0711  -2.9617   0.0000   0.0000   0.0000   0.3450
   4.710   1.1107   0.02787   0.02251  -0.1334  0.3334  0.0711  -2.9626   0.0000   0.0000   0.0000   0.3448
   4.720   1.1115   0.02790   0.02254  -0.1334  0.3333  0.0711  -2.9635   0.0000   0.0000   0.0000   0.3447
   4.730   1.1124   0.02793   0.02257  -0.1334  0.3333  0.0711  -2.9645   0.0000   0.0000   0.0000   0.3445
   4.740   1.1132   0.02796   0.02260  -0.1333  0.3333  0.0712  -2.9654   0.0000   0.0000   0.0000   0.3444
   4.750   1.1140   0.02799   0.02263  -0.1333  0.3333  0.0712  -2.9663   0.0000   0.0000   0.0000   0.3442
   4.760   1.1149   0.02802   0.02266  -0.1333  0.3333  0.0712  -2.9672   0.0000   0.0000   0.0000   0.3441
   4.770   1.1157   0.02805   0.02269  -0.1332  0.3333  0.0712  -2.9681   0.0000   0.0000   0.0000   0.3439
   4.780   1.1165   0.02808   0.02272  -0.1332  0.3332  0.0712  -2.9691   0.0000   0.0000   0.0000   0.3438
   4.790   1.1174   0.02811   0.02275  -0.1332  0.3332  0.0712  -2.9700   0.0000   0.0000   0.0000   0.3436
   4.800   1.1182   0.02814   0.02278  -0.1331  0.3332  0.0713  -2.9709   0.0000   0.0000   0.0000   0.3435
   4.810   1.1190   0.02817   0.02281  -0.1331  0.3332  0.0713  -2.9718   0.0000   0.0000   0.0000   0.3433
   4.820   1.1199   0.02819   0.02284  -0.1330  0.3332  0.0713  -2.9727   0.0000   0.0000   0.0000   0.3432
   4.830   1.1207   0.02822   0.02287  -0.1330  0.3332  0.0713  -2.9736   0.0000   0.0000   0.0000   0.3431
   4.840   1.1215   0.02825   0.02290  -0.1330  0.3331  0.0714  -2.9745   0.0000   0.0000   0.0000   0.3429
   4.850   1.1224   0.02828   0.02293  -0.1329  0.3331  0.0714  -2.9754   0.0000   0.0000   0.0000   0.3428
   4.860   1.1232   0.02831   0.02296  -0.1329  0.3331  0.0714  -2.9763   0.0000   0.0000   0.0000   0.3426
   4.870   1.1240   0.02834   0.02299  -0.1329  0.3331  0.0715  -2.9772   0.0000   0.0000   0.0000   0.3425
   4.880   1.1248   0.02837   0.02302  -0.1328  0.3331  0.0715  -2.9781   0.0000   0.0000   0.0000   0.3423
   4.890   1.1257   0.02840   0.02305  -0.1328  0.3331  0.0716  -2.9790   0.0000   0.0000   0.0000   0.3422
   4.900   1.1265   0.02843   0.02309  -0.1328  0.3330  0.0716  -2.9799   0.0000   0.0000   0.0000   0.3420
   4.910   1.1273   0.02846   0.02312  -0.1327  0.3330  0.0716  -2.9808   0.0000   0.0000   0.0000   0.3419
   4.920   1.1281   0.02849   0.02315  -0.1327  0.3330  0.0717  -2.9816   0.0000   0.0000   0.0000   0.3417
   4.930   1.1288   0.02853   0.02318  -0.1327  0.3330  0.0717  -2.9824   0.0000   0.0000   0.0000   0.3416
   4.940   1.1296   0.02856   0.02322  -0.1326  0.3329  0.0718  -2.9832   0.0000   0.0000   0.0000   0.3415
   4.950   1.1303   0.02860   0.02326  -0.1326  0.3329  0.0718  -2.9839   0.0000   0.0000   0.0000   0.3413
   4.960   1.1309   0.02864   0.02330  -0.1325  0.3329  0.0718  -2.9846   0.0000   0.0000   0.0000   0.3412
   4.970   1.1316   0.02868   0.02334  -0.1325  0.3329  0.0719  -2.9853   0.0000   0.0000   0.0000   0.3410
   4.980   1.1322   0.02872   0.02338  -0.1324  0.3329  0.0719  -2.9859   0.0000   0.0000   0.0000   0.3409
   4.990   1.1328   0.02876   0.02342  -0.1324  0.3328  0.0720  -2.9865   0.0000   0.0000   0.0000   0.3408
   5.000   1.1335   0.02880   0.02347  -0.1323  0.3328  0.0720  -2.9871   0.0000   0.0000   0.0000   0.3406
   5.010   1.1341   0.02885   0.02351  -0.1323  0.3328  0.0721  -2.9877   0.0000   0.0000   0.0000   0.3405
   5.020   1.1347   0.02889   0.02355  -0.1322  0.3327  0.0721  -2.9883   0.0000   0.0000   0.0000   0.3403
   5.030   1.1353   0.02893   0.02360  -0.1322  0.3327  0.0721  -2.9888   0.0000   0.0000   0.0000   0.3402
   5.040   1.1359   0.02897   0.02364  -0.1321  0.3327  0.0722  -2.9894   0.0000   0.0000   0.0000   0.3401
   5.050   1.1365   0.02902   0.02369  -0.1321  0.3327  0.0722  -2.9900   0.0000   0.0000   0.0000   0.3399
   5.060   1.1371   0.02906   0.02373  -0.1320  0.3326  0.0723  -2.9906   0.0000   0.0000   0.0000   0.3398
   5.070   1.1377   0.02910   0.02377  -0.1320  0.3326  0.0723  -2.9913   0.0000   0.0000   0.0000   0.3397
   5.080   1.1384   0.02914   0.02381  -0.1319  0.3326  0.0724  -2.9919   0.0000   0.0000   0.0000   0.3395
   5.090   1.1390   0.02918   0.02385  -0.1319  0.3326  0.0724  -2.9926   0.0000   0.0000   0.0000   0.3394
   5.100   1.1397   0.02922   0.02389  -0.1318  0.3325  0.0725  -2.9933   0.0000   0.0000   0.0000   0.3392
   5.110   1.1404   0.02925   0.02393  -0.1318  0.3325  0.0725  -2.9940   0.0000   0.0000   0.0000   0.3391
   5.120   1.1411   0.02929   0.02397  -0.1317  0.3325  0.0726  -2.9947   0.0000   0.0000   0.0000   0.3390
   5.130   1.1418   0.02933   0.02401  -0.1317  0.3324  0.0726  -2.9954   0.0000   0.0000   0.0000   0.3388
   5.140   1.1425   0.02937   0.02404  -0.1317  0.3324  0.0727  -2.9961   0.0000   0.0000   0.0000   0.3387
   5.150   1.1432   0.02940   0.02408  -0.1316  0.3324  0.0727  -2.9968   0.0000   0.0000   0.0000   0.3386
   5.160   1.1439   0.02944   0.02412  -0.1316  0.3324  0.0727  -2.9976   0.0000   0.0000   0.0000   0.3384
   5.170   1.1447   0.02947   0.02416  -0.1315  0.3323  0.0728  -2.9983   0.0000   0.0000   0.0000   0.3383
   5.180   1.1454   0.02951   0.02419  -0.1315  0.3323  0.0728  -2.9991   0.0000   0.0000   0.0000   0.3382
   5.190   1.1461   0.02954   0.02423  -0.1314  0.3323  0.0729  -2.9999   0.0000   0.0000   0.0000   0.3380
   5.200   1.1469   0.02958   0.02426  -0.1314  0.3322  0.0729  -3.0006   0.0000   0.0000   0.0000   0.3379
   5.210   1.1476   0.02961   0.02430  -0.1314  0.3322  0.0730  -3.0014   0.0000   0.0000   0.0000   0.3377
   5.220   1.1484   0.02965   0.02434  -0.1313  0.3322  0.0730  -3.0022   0.0000   0.0000   0.0000   0.3376
   5.230   1.1491   0.02968   0.02437  -0.1313  0.3321  0.0731  -3.0030   0.0000   0.0000   0.0000   0.3375
   5.240   1.1499   0.02972   0.02441  -0.1312  0.3321  0.0731  -3.0038   0.0000   0.0000   0.0000   0.3373
   5.250   1.1506   0.02975   0.02444  -0.1312  0.3321  0.0732  -3.0045   0.0000   0.0000   0.0000   0.3372
   5.260   1.1514   0.02979   0.02448  -0.1312  0.3320  0.0732  -3.0053   0.0000   0.0000   0.0000   0.3371
   5.270   1.1521   0.02982   0.02451  -0.1311  0.3320  0.0733  -3.0061   0.0000   0.0000   0.0000   0.3369
   5.280   1.1529   0.02985   0.02455  -0.1311  0.3320  0.0733  -3.0069   0.0000   0.0000   0.0000   0.3368
   5.290   1.1536   0.02989   0.02458  -0.1311  0.3319  0.0733  -3.0077   0.0000   0.0000   0.0000   0.3367
   5.300   1.1544   0.02992   0.02461  -0.1310  0.3319  0.0734  -3.0086   0.0000   0.0000   0.0000   0.3365
   5.310   1.1552   0.02995   0.02465  -0.1310  0.3319  0.0734  -3.0094   0.0000   0.0000   0.0000   0.3364
   5.320   1.1560   0.02999   0.02468  -0.1309  0.3318  0.0735  -3.0102   0.0000   0.0000   0.0000   0.3362
   5.330   1.1568   0.03002   0.02472  -0.1309  0.3318  0.0735  -3.0110   0.0000   0.0000   0.0000   0.3361
   5.340   1.1575   0.03005   0.02475  -0.1309  0.3318  0.0736  -3.0118   0.0000   0.0000   0.0000   0.3360
   5.350   1.1583   0.03009   0.02479  -0.1308  0.3318  0.0736  -3.0127   0.0000   0.0000   0.0000   0.3358
   5.360   1.1591   0.03012   0.02482  -0.1308  0.3317  0.0736  -3.0135   0.0000   0.0000   0.0000   0.3357
   5.370   1.1599   0.03015   0.02485  -0.1308  0.3317  0.0737  -3.0143   0.0000   0.0000   0.0000   0.3356
   5.380   1.1607   0.03019   0.02489  -0.1307  0.3317  0.0737  -3.0151   0.0000   0.0000   0.0000   0.3354
   5.390   1.1614   0.03022   0.02492  -0.1307  0.3316  0.0738  -3.0159   0.0000   0.0000   0.0000   0.3353
   5.400   1.1622   0.03025   0.02496  -0.1307  0.3316  0.0738  -3.0168   0.0000   0.0000   0.0000   0.3352
   5.410   1.1630   0.03028   0.02499  -0.1306  0.3316  0.0739  -3.0176   0.0000   0.0000   0.0000   0.3350
   5.420   1.1638   0.03032   0.02502  -0.1306  0.3315  0.0739  -3.0184   0.0000   0.0000   0.0000   0.3349
   5.430   1.1646   0.03035   0.02506  -0.1306  0.3315  0.0739  -3.0192   0.0000   0.0000   0.0000   0.3348
   5.440   1.1654   0.03038   0.02509  -0.1305  0.3315  0.0740  -3.0201   0.0000   0.0000   0.0000   0.3346
   5.450   1.1661   0.03042   0.02513  -0.1305  0.3314  0.0740  -3.0209   0.0000   0.0000   0.0000   0.3345
   5.460   1.1669   0.03045   0.02516  -0.1305  0.3314  0.0741  -3.0217   0.0000   0.0000   0.0000   0.3344
   5.470   1.1677   0.03048   0.02519  -0.1304  0.3314  0.0741  -3.0225   0.0000   0.0000   0.0000   0.3342
   5.480   1.1685   0.03052   0.02523  -0.1304  0.3313  0.0742  -3.0233   0.0000   0.0000   0.0000   0.3341
   5.490   1.1693   0.03055   0.02526  -0.1304  0.3313  0.0742  -3.0242   0.0000   0.0000   0.0000   0.3340
   5.500   1.1700   0.03058   0.02530  -0.1303  0.3313  0.0743  -3.0250   0.0000   0.0000   0.0000   0.3339
   5.510   1.1708   0.03062   0.02533  -0.1303  0.3312  0.0743  -3.0258   0.0000   0.0000   0.0000   0.3337
   5.520   1.1716   0.03065   0.02536  -0.1302  0.3312  0.0744  -3.0266   0.0000   0.0000   0.0000   0.3336
   5.530   1.1724   0.03068   0.02540  -0.1302  0.3312  0.0744  -3.0274   0.0000   0.0000   0.0000   0.3335
   5.540   1.1732   0.03072   0.02543  -0.1302  0.3311  0.0744  -3.0282   0.0000   0.0000   0.0000   0.3333
   5.550   1.1739   0.03075   0.02547  -0.1301  0.3311  0.0745  -3.0290   0.0000   0.0000   0.0000   0.3332
   5.560   1.1747   0.03078   0.02550  -0.1301  0.3311  0.0745  -3.0299   0.0000   0.0000   0.0000   0.3331
   5.570   1.1755   0.03082   0.02554  -0.1301  0.3311  0.0746  -3.0307   0.0000   0.0000   0.0000   0.3329
   5.580   1.1763   0.03085   0.02557  -0.1300  0.3310  0.0746  -3.0315   0.0000   0.0000   0.0000   0.3328
   5.590   1.1770   0.03088   0.02561  -0.1300  0.3310  0.0746  -3.0322   0.0000   0.0000   0.0000   0.3327
   5.600   1.1778   0.03092   0.02564  -0.1300  0.3310  0.0747  -3.0330   0.0000   0.0000   0.0000   0.3325
   5.610   1.1784   0.03096   0.02568  -0.1299  0.3309  0.0747  -3.0337   0.0000   0.0000   0.0000   0.3324
   5.620   1.1791   0.03100   0.02573  -0.1299  0.3309  0.0747  -3.0343   0.0000   0.0000   0.0000   0.3323
   5.630   1.1798   0.03104   0.02577  -0.1298  0.3309  0.0748  -3.0349   0.0000   0.0000   0.0000   0.3322
   5.640   1.1804   0.03108   0.02581  -0.1298  0.3309  0.0748  -3.0355   0.0000   0.0000   0.0000   0.3320
   5.650   1.1810   0.03113   0.02586  -0.1297  0.3308  0.0748  -3.0360   0.0000   0.0000   0.0000   0.3319
   5.660   1.1815   0.03118   0.02591  -0.1297  0.3308  0.0748  -3.0365   0.0000   0.0000   0.0000   0.3318
   5.670   1.1821   0.03122   0.02595  -0.1296  0.3308  0.0749  -3.0370   0.0000   0.0000   0.0000   0.3317
   5.680   1.1827   0.03127   0.02600  -0.1296  0.3308  0.0749  -3.0375   0.0000   0.0000   0.0000   0.3315
   5.690   1.1832   0.03131   0.02605  -0.1295  0.3308  0.0749  -3.0380   0.0000   0.0000   0.0000   0.3314
   5.700   1.1838   0.03136   0.02610  -0.1295  0.3307  0.0749  -3.0385   0.0000   0.0000   0.0000   0.3313
   5.710   1.1844   0.03141   0.02615  -0.1294  0.3307  0.0750  -3.0390   0.0000   0.0000   0.0000   0.3312
   5.720   1.1849   0.03145   0.02619  -0.1294  0.3307  0.0750  -3.0395   0.0000   0.0000   0.0000   0.3310
   5.730   1.1855   0.03150   0.02624  -0.1293  0.3307  0.0750  -3.0400   0.0000   0.0000   0.0000   0.3309
   5.740   1.1862   0.03154   0.02628  -0.1293  0.3307  0.0750  -3.0406   0.0000   0.0000   0.0000   0.3308
   5.750   1.1868   0.03158   0.02633  -0.1292  0.3307  0.0750  -3.0412   0.0000   0.0000   0.0000   0.3307
   5.760   1.1874   0.03163   0.02637  -0.1292  0.3306  0.0751  -3.0418   0.0000   0.0000   0.0000   0.3305
   5.770   1.1881   0.03167   0.02641  -0.1292  0.3306  0.0751  -3.0424   0.0000   0.0000   0.0000   0.3304
   5.780   1.1887   0.03171   0.02645  -0.1291  0.3306  0.0751  -3.0430   0.0000   0.0000   0.0000   0.3303
   5.790   1.1894   0.03175   0.02650  -0.1291  0.3306  0.0751  -3.0436   0.0000   0.0000   0.0000   0.3302
   5.800   1.1901   0.03179   0.02654  -0.1290  0.3306  0.0752  -3.0443   0.0000   0.0000   0.0000   0.3301
   5.810   1.1908   0.03183   0.02658  -0.1290  0.3306  0.0752  -3.0450   0.0000   0.0000   0.0000   0.3299
   5.820   1.1915   0.03187   0.02662  -0.1290  0.3306  0.0752  -3.0456   0.0000   0.0000   0.0000   0.3298
   5.830   1.1922   0.03190   0.02666  -0.1289  0.3305  0.0752  -3.0463   0.0000   0.0000   0.0000   0.3297
   5.840   1.1929   0.03194   0.02670  -0.1289  0.3305  0.0753  -3.0470   0.0000   0.0000   0.0000   0.3296
   5.850   1.1936   0.03198   0.02673  -0.1288  0.3305  0.0753  -3.0477   0.0000   0.0000   0.0000   0.3294
   5.860   1.1944   0.03202   0.02677  -0.1288  0.3305  0.0753  -3.0484   0.0000   0.0000   0.0000   0.3293
   5.870   1.1951   0.03205   0.02681  -0.1288  0.3305  0.0753  -3.0492   0.0000   0.0000   0.0000   0.3292
   5.880   1.1959   0.03209   0.02685  -0.1287  0.3305  0.0754  -3.0499   0.0000   0.0000   0.0000   0.3291
   5.890   1.1966   0.03213   0.02689  -0.1287  0.3305  0.0754  -3.0507   0.0000   0.0000   0.0000   0.3289
   5.900   1.1974   0.03216   0.02692  -0.1287  0.3304  0.0754  -3.0514   0.0000   0.0000   0.0000   0.3288
   5.910   1.1981   0.03220   0.02696  -0.1286  0.3304  0.0755  -3.0522   0.0000   0.0000   0.0000   0.3287
   5.920   1.1989   0.03224   0.02700  -0.1286  0.3304  0.0755  -3.0529   0.0000   0.0000   0.0000   0.3286
   5.930   1.1996   0.03227   0.02703  -0.1286  0.3304  0.0755  -3.0537   0.0000   0.0000   0.0000   0.3284
   5.940   1.2004   0.03231   0.02707  -0.1285  0.3304  0.0755  -3.0544   0.0000   0.0000   0.0000   0.3283
   5.950   1.2012   0.03234   0.02711  -0.1285  0.3304  0.0756  -3.0552   0.0000   0.0000   0.0000   0.3282
   5.960   1.2019   0.03238   0.02714  -0.1285  0.3303  0.0756  -3.0560   0.0000   0.0000   0.0000   0.3281
   5.970   1.2027   0.03241   0.02718  -0.1284  0.3303  0.0756  -3.0567   0.0000   0.0000   0.0000   0.3280
   5.980   1.2035   0.03245   0.02722  -0.1284  0.3303  0.0757  -3.0575   0.0000   0.0000   0.0000   0.3278
   5.990   1.2042   0.03249   0.02725  -0.1284  0.3303  0.0757  -3.0583   0.0000   0.0000   0.0000   0.3277
   6.000   1.2050   0.03252   0.02729  -0.1283  0.3303  0.0757  -3.0591   0.0000   0.0000   0.0000   0.3276
   6.010   1.2058   0.03256   0.02733  -0.1283  0.3303  0.0758  -3.0598   0.0000   0.0000   0.0000   0.3275
   6.020   1.2066   0.03259   0.02736  -0.1283  0.3303  0.0758  -3.0606   0.0000   0.0000   0.0000   0.3273
   6.030   1.2073   0.03263   0.02740  -0.1282  0.3302  0.0758  -3.0614   0.0000   0.0000   0.0000   0.3272
   6.040   1.2081   0.03266   0.02743  -0.1282  0.3302  0.0758  -3.0621   0.0000   0.0000   0.0000   0.3271
   6.050   1.2089   0.03270   0.02747  -0.1282  0.3302  0.0759  -3.0629   0.0000   0.0000   0.0000   0.3270
   6.060   1.2097   0.03273   0.02751  -0.1281  0.3302  0.0759  -3.0637   0.0000   0.0000   0.0000   0.3269
   6.070   1.2104   0.03277   0.02754  -0.1281  0.3302  0.0759  -3.0645   0.0000   0.0000   0.0000   0.3267
   6.080   1.2112   0.03280   0.02758  -0.1281  0.3302  0.0759  -3.0652   0.0000   0.0000   0.0000   0.3266
   6.090   1.2120   0.03284   0.02762  -0.1281  0.3301  0.0760  -3.0660   0.0000   0.0000   0.0000   0.3265
   6.100   1.2128   0.03287   0.02765  -0.1280  0.3301  0.0760  -3.0668   0.0000   0.0000   0.0000   0.3264
   6.110   1.2135   0.03291   0.02769  -0.1280  0.3301  0.0760  -3.0676   0.0000   0.0000   0.0000   0.3263
   6.120   1.2143   0.03294   0.02772  -0.1280  0.3301  0.0761  -3.0683   0.0000   0.0000   0.0000   0.3261
   6.130   1.2151   0.03298   0.02776  -0.1279  0.3301  0.0761  -3.0691   0.0000   0.0000   0.0000   0.3260
   6.140   1.2159   0.03301   0.02780  -0.1279  0.3301  0.0761  -3.0699   0.0000   0.0000   0.0000   0.3259
   6.150   1.2166   0.03305   0.02783  -0.1279  0.3300  0.0761  -3.0707   0.0000   0.0000   0.0000   0.3258
   6.160   1.2174   0.03308   0.02787  -0.1278  0.3300  0.0762  -3.0714   0.0000   0.0000   0.0000   0.3257
   6.170   1.2182   0.03312   0.02791  -0.1278  0.3300  0.0762  -3.0722   0.0000   0.0000   0.0000   0.3255
   6.180   1.2190   0.03315   0.02794  -0.1278  0.3300  0.0762  -3.0730   0.0000   0.0000   0.0000   0.3254
   6.190   1.2197   0.03319   0.02798  -0.1277  0.3300  0.0762  -3.0737   0.0000   0.0000   0.0000   0.3253
   6.200   1.2205   0.03323   0.02802  -0.1277  0.3300  0.0763  -3.0745   0.0000   0.0000   0.0000   0.3252
   6.210   1.2213   0.03326   0.02805  -0.1277  0.3300  0.0763  -3.0752   0.0000   0.0000   0.0000   0.3251
   6.220   1.2220   0.03330   0.02809  -0.1276  0.3299  0.0763  -3.0760   0.0000   0.0000   0.0000   0.3249
   6.230   1.2228   0.03333   0.02813  -0.1276  0.3299  0.0763  -3.0768   0.0000   0.0000   0.0000   0.3248
   6.240   1.2236   0.03337   0.02816  -0.1276  0.3299  0.0764  -3.0775   0.0000   0.0000   0.0000   0.3247
   6.250   1.2243   0.03341   0.02820  -0.1275  0.3299  0.0764  -3.0783   0.0000   0.0000   0.0000   0.3246
   6.260   1.2251   0.03344   0.02824  -0.1275  0.3299  0.0764  -3.0790   0.0000   0.0000   0.0000   0.3245
   6.270   1.2258   0.03348   0.02828  -0.1275  0.3299  0.0765  -3.0797   0.0000   0.0000   0.0000   0.3244
   6.280   1.2266   0.03352   0.02831  -0.1274  0.3298  0.0765  -3.0804   0.0000   0.0000   0.0000   0.3242
   6.290   1.2272   0.03356   0.02836  -0.1274  0.3298  0.0765  -3.0811   0.0000   0.0000   0.0000   0.3241
   6.300   1.2279   0.03360   0.02840  -0.1274  0.3298  0.0765  -3.0816   0.0000   0.0000   0.0000   0.3240
   6.310   1.2285   0.03365   0.02845  -0.1273  0.3298  0.0766  -3.0822   0.0000   0.0000   0.0000   0.3239
   6.320   1.2291   0.03369   0.02850  -0.1273  0.3298  0.0766  -3.0827   0.0000   0.0000   0.0000   0.3238
   6.330   1.2297   0.03374   0.02855  -0.1272  0.3297  0.0766  -3.0831   0.0000   0.0000   0.0000   0.3237
   6.340   1.2302   0.03379   0.02860  -0.1272  0.3297  0.0766  -3.0835   0.0000   0.0000   0.0000   0.3236
   6.350   1.2307   0.03384   0.02865  -0.1271  0.3297  0.0766  -3.0839   0.0000   0.0000   0.0000   0.3234
   6.360   1.2312   0.03389   0.02870  -0.1271  0.3297  0.0767  -3.0843   0.0000   0.0000   0.0000   0.3233
   6.370   1.2317   0.03395   0.02876  -0.1270  0.3297  0.0767  -3.0846   0.0000   0.0000   0.0000   0.3232
   6.380   1.2322   0.03400   0.02881  -0.1270  0.3297  0.0767  -3.0850   0.0000   0.0000   0.0000   0.3231
   6.390   1.2327   0.03405   0.02886  -0.1269  0.3296  0.0767  -3.0853   0.0000   0.0000   0.0000   0.3230
   6.400   1.2333   0.03410   0.02892  -0.1269  0.3296  0.0768  -3.0857   0.0000   0.0000   0.0000   0.3229
   6.410   1.2338   0.03415   0.02897  -0.1268  0.3296  0.0768  -3.0861   0.0000   0.0000   0.0000   0.3228
   6.420   1.2344   0.03420   0.02902  -0.1268  0.3296  0.0768  -3.0866   0.0000   0.0000   0.0000   0.3227
   6.430   1.2349   0.03425   0.02906  -0.1268  0.3296  0.0768  -3.0870   0.0000   0.0000   0.0000   0.3225
   6.440   1.2355   0.03429   0.02911  -0.1267  0.3295  0.0768  -3.0875   0.0000   0.0000   0.0000   0.3224
   6.450   1.2362   0.03434   0.02916  -0.1267  0.3295  0.0769  -3.0881   0.0000   0.0000   0.0000   0.3223
   6.460   1.2368   0.03438   0.02921  -0.1266  0.3295  0.0769  -3.0886   0.0000   0.0000   0.0000   0.3222
   6.470   1.2375   0.03443   0.02925  -0.1266  0.3295  0.0769  -3.0892   0.0000   0.0000   0.0000   0.3221
   6.480   1.2381   0.03447   0.02929  -0.1266  0.3295  0.0769  -3.0898   0.0000   0.0000   0.0000   0.3220
   6.490   1.2388   0.03451   0.02934  -0.1265  0.3295  0.0770  -3.0904   0.0000   0.0000   0.0000   0.3219
   6.500   1.2395   0.03456   0.02938  -0.1265  0.3294  0.0770  -3.0910   0.0000   0.0000   0.0000   0.3218
   6.510   1.2402   0.03460   0.02943  -0.1264  0.3294  0.0770  -3.0916   0.0000   0.0000   0.0000   0.3216
   6.520   1.2409   0.03464   0.02947  -0.1264  0.3294  0.0770  -3.0922   0.0000   0.0000   0.0000   0.3215
   6.530   1.2415   0.03468   0.02951  -0.1264  0.3294  0.0770  -3.0928   0.0000   0.0000   0.0000   0.3214
   6.540   1.2423   0.03472   0.02955  -0.1263  0.3294  0.0771  -3.0935   0.0000   0.0000   0.0000   0.3213
   6.550   1.2430   0.03476   0.02959  -0.1263  0.3293  0.0771  -3.0941   0.0000   0.0000   0.0000   0.3212
   6.560   1.2437   0.03480   0.02964  -0.1263  0.3293  0.0771  -3.0948   0.0000   0.0000   0.0000   0.3211
   6.570   1.2444   0.03484   0.02968  -0.1262  0.3293  0.0771  -3.0954   0.0000   0.0000   0.0000   0.3210
   6.580   1.2451   0.03488   0.02972  -0.1262  0.3293  0.0772  -3.0961   0.0000   0.0000   0.0000   0.3209
   6.590   1.2458   0.03492   0.02976  -0.1262  0.3293  0.0772  -3.0968   0.0000   0.0000   0.0000   0.3207
   6.600   1.2465   0.03496   0.02980  -0.1261  0.3293  0.0772  -3.0974   0.0000   0.0000   0.0000   0.3206
   6.610   1.2473   0.03500   0.02984  -0.1261  0.3292  0.0772  -3.0981   0.0000   0.0000   0.0000   0.3205
   6.620   1.2480   0.03504   0.02988  -0.1261  0.3292  0.0772  -3.0988   0.0000   0.0000   0.0000   0.3204
   6.630   1.2487   0.03508   0.02992  -0.1260  0.3292  0.0773  -3.0995   0.0000   0.0000   0.0000   0.3203
   6.640   1.2495   0.03512   0.02996  -0.1260  0.3292  0.0773  -3.1002   0.0000   0.0000   0.0000   0.3202
   6.650   1.2502   0.03516   0.03000  -0.1260  0.3292  0.0773  -3.1008   0.0000   0.0000   0.0000   0.3201
   6.660   1.2509   0.03520   0.03004  -0.1259  0.3291  0.0773  -3.1015   0.0000   0.0000   0.0000   0.3200
   6.670   1.2517   0.03524   0.03008  -0.1259  0.3291  0.0774  -3.1022   0.0000   0.0000   0.0000   0.3199
   6.680   1.2524   0.03528   0.03012  -0.1259  0.3291  0.0774  -3.1029   0.0000   0.0000   0.0000   0.3197
   6.690   1.2531   0.03532   0.03016  -0.1259  0.3291  0.0774  -3.1036   0.0000   0.0000   0.0000   0.3196
   6.700   1.2539   0.03535   0.03020  -0.1258  0.3291  0.0775  -3.1043   0.0000   0.0000   0.0000   0.3195
   6.710   1.2546   0.03539   0.03024  -0.1258  0.3291  0.0775  -3.1050   0.0000   0.0000   0.0000   0.3194
   6.720   1.2554   0.03543   0.03028  -0.1258  0.3290  0.0775  -3.1057   0.0000   0.0000   0.0000   0.3193
   6.730   1.2561   0.03547   0.03032  -0.1257  0.3290  0.0776  -3.1064   0.0000   0.0000   0.0000   0.3192
   6.740   1.2568   0.03551   0.03036  -0.1257  0.3290  0.0776  -3.1071   0.0000   0.0000   0.0000   0.3191
   6.750   1.2576   0.03555   0.03040  -0.1257  0.3290  0.0776  -3.1077   0.0000   0.0000   0.0000   0.3190
   6.760   1.2583   0.03558   0.03044  -0.1256  0.3290  0.0777  -3.1084   0.0000   0.0000   0.0000   0.3189
   6.770   1.2591   0.03562   0.03048  -0.1256  0.3289  0.0777  -3.1091   0.0000   0.0000   0.0000   0.3187
   6.780   1.2598   0.03566   0.03052  -0.1256  0.3289  0.0778  -3.1098   0.0000   0.0000   0.0000   0.3186
   6.790   1.2605   0.03570   0.03056  -0.1255  0.3289  0.0778  -3.1105   0.0000   0.0000   0.0000   0.3185
   6.800   1.2613   0.03574   0.03060  -0.1255  0.3289  0.0779  -3.1112   0.0000   0.0000   0.0000   0.3184
   6.810   1.2620   0.03578   0.03064  -0.1255  0.3289  0.0779  -3.1119   0.0000   0.0000   0.0000   0.3183
   6.820   1.2628   0.03582   0.03068  -0.1254  0.3288  0.0780  -3.1126   0.0000   0.0000   0.0000   0.3182
   6.830   1.2635   0.03585   0.03072  -0.1254  0.3288  0.0781  -3.1132   0.0000   0.0000   0.0000   0.3181
   6.840   1.2642   0.03589   0.03076  -0.1254  0.3288  0.0781  -3.1139   0.0000   0.0000   0.0000   0.3180
   6.850   1.2650   0.03593   0.03079  -0.1254  0.3288  0.0782  -3.1146   0.0000   0.0000   0.0000   0.3179
   6.860   1.2657   0.03597   0.03083  -0.1253  0.3288  0.0783  -3.1153   0.0000   0.0000   0.0000   0.3178
   6.870   1.2664   0.03601   0.03087  -0.1253  0.3288  0.0784  -3.1160   0.0000   0.0000   0.0000   0.3177
   6.880   1.2672   0.03605   0.03091  -0.1253  0.3287  0.0785  -3.1166   0.0000   0.0000   0.0000   0.3176
   6.890   1.2679   0.03609   0.03096  -0.1252  0.3287  0.0785  -3.1173   0.0000   0.0000   0.0000   0.3174
   6.900   1.2686   0.03613   0.03100  -0.1252  0.3287  0.0786  -3.1180   0.0000   0.0000   0.0000   0.3173
   6.910   1.2694   0.03617   0.03104  -0.1252  0.3287  0.0787  -3.1187   0.0000   0.0000   0.0000   0.3172
   6.920   1.2701   0.03620   0.03108  -0.1251  0.3287  0.0788  -3.1193   0.0000   0.0000   0.0000   0.3171
   6.930   1.2708   0.03624   0.03112  -0.1251  0.3286  0.0789  -3.1200   0.0000   0.0000   0.0000   0.3170
   6.940   1.2715   0.03628   0.03116  -0.1251  0.3286  0.0790  -3.1206   0.0000   0.0000   0.0000   0.3169
   6.950   1.2723   0.03632   0.03120  -0.1250  0.3286  0.0790  -3.1213   0.0000   0.0000   0.0000   0.3168
   6.960   1.2730   0.03636   0.03124  -0.1250  0.3286  0.0791  -3.1219   0.0000   0.0000   0.0000   0.3167
   6.970   1.2737   0.03640   0.03128  -0.1250  0.3286  0.0792  -3.1226   0.0000   0.0000   0.0000   0.3166
   6.990   1.2750   0.03649   0.03137  -0.1249  0.3285  0.0794  -3.1236   0.0000   0.0000   0.0000   0.3164
   7.000   1.2755   0.03654   0.03142  -0.1249  0.3285  0.0795  -3.1241   0.0000   0.0000   0.0000   0.3163
   7.010   1.2761   0.03659   0.03148  -0.1248  0.3285  0.0796  -3.1244   0.0000   0.0000   0.0000   0.3162
   7.020   1.2766   0.03665   0.03153  -0.1248  0.3285  0.0797  -3.1247   0.0000   0.0000   0.0000   0.3161
   7.030   1.2770   0.03670   0.03159  -0.1247  0.3284  0.0799  -3.1250   0.0000   0.0000   0.0000   0.3160
   7.040   1.2775   0.03676   0.03165  -0.1247  0.3284  0.0800  -3.1252   0.0000   0.0000   0.0000   0.3159
   7.050   1.2779   0.03682   0.03171  -0.1246  0.3284  0.0801  -3.1254   0.0000   0.0000   0.0000   0.3158
   7.060   1.2784   0.03687   0.03176  -0.1246  0.3284  0.0802  -3.1256   0.0000   0.0000   0.0000   0.3157
   7.070   1.2788   0.03693   0.03182  -0.1245  0.3283  0.0803  -3.1258   0.0000   0.0000   0.0000   0.3156
   7.080   1.2792   0.03699   0.03188  -0.1245  0.3283  0.0804  -3.1261   0.0000   0.0000   0.0000   0.3155
   7.090   1.2797   0.03705   0.03194  -0.1244  0.3283  0.0805  -3.1263   0.0000   0.0000   0.0000   0.3153
   7.100   1.2802   0.03710   0.03200  -0.1244  0.3283  0.0806  -3.1266   0.0000   0.0000   0.0000   0.3152
   7.110   1.2807   0.03715   0.03205  -0.1243  0.3283  0.0807  -3.1269   0.0000   0.0000   0.0000   0.3151
   7.120   1.2813   0.03721   0.03211  -0.1243  0.3282  0.0808  -3.1273   0.0000   0.0000   0.0000   0.3150
   7.130   1.2818   0.03726   0.03216  -0.1243  0.3282  0.0809  -3.1277   0.0000   0.0000   0.0000   0.3149
   7.140   1.2824   0.03731   0.03221  -0.1242  0.3282  0.0810  -3.1281   0.0000   0.0000   0.0000   0.3148
   7.150   1.2830   0.03736   0.03226  -0.1242  0.3282  0.0812  -3.1285   0.0000   0.0000   0.0000   0.3147
   7.160   1.2836   0.03740   0.03231  -0.1241  0.3282  0.0813  -3.1290   0.0000   0.0000   0.0000   0.3146
   7.170   1.2842   0.03745   0.03236  -0.1241  0.3281  0.0814  -3.1294   0.0000   0.0000   0.0000   0.3145
   7.180   1.2848   0.03750   0.03241  -0.1241  0.3281  0.0815  -3.1299   0.0000   0.0000   0.0000   0.3144
   7.190   1.2854   0.03755   0.03246  -0.1240  0.3281  0.0816  -3.1304   0.0000   0.0000   0.0000   0.3143
   7.200   1.2861   0.03759   0.03250  -0.1240  0.3281  0.0817  -3.1309   0.0000   0.0000   0.0000   0.3142
   7.210   1.2867   0.03764   0.03255  -0.1240  0.3281  0.0818  -3.1314   0.0000   0.0000   0.0000   0.3141
   7.220   1.2874   0.03768   0.03260  -0.1239  0.3280  0.0819  -3.1320   0.0000   0.0000   0.0000   0.3140
   7.230   1.2880   0.03773   0.03264  -0.1239  0.3280  0.0821  -3.1325   0.0000   0.0000   0.0000   0.3139
   7.240   1.2887   0.03777   0.03269  -0.1239  0.3280  0.0822  -3.1330   0.0000   0.0000   0.0000   0.3138
   7.250   1.2893   0.03782   0.03273  -0.1238  0.3280  0.0823  -3.1336   0.0000   0.0000   0.0000   0.3137
   7.260   1.2900   0.03786   0.03278  -0.1238  0.3279  0.0824  -3.1341   0.0000   0.0000   0.0000   0.3136
   7.270   1.2907   0.03790   0.03282  -0.1238  0.3279  0.0825  -3.1347   0.0000   0.0000   0.0000   0.3135
   7.280   1.2914   0.03795   0.03287  -0.1237  0.3279  0.0826  -3.1353   0.0000   0.0000   0.0000   0.3134
   7.290   1.2920   0.03799   0.03291  -0.1237  0.3279  0.0827  -3.1358   0.0000   0.0000   0.0000   0.3133
   7.300   1.2927   0.03803   0.03296  -0.1237  0.3279  0.0828  -3.1364   0.0000   0.0000   0.0000   0.3132
   7.310   1.2934   0.03808   0.03300  -0.1236  0.3278  0.0829  -3.1370   0.0000   0.0000   0.0000   0.3131
   7.320   1.2941   0.03812   0.03305  -0.1236  0.3278  0.0830  -3.1376   0.0000   0.0000   0.0000   0.3130
   7.330   1.2948   0.03816   0.03309  -0.1236  0.3278  0.0831  -3.1382   0.0000   0.0000   0.0000   0.3129
   7.340   1.2955   0.03820   0.03313  -0.1235  0.3278  0.0832  -3.1388   0.0000   0.0000   0.0000   0.3128
   7.350   1.2962   0.03825   0.03318  -0.1235  0.3278  0.0833  -3.1394   0.0000   0.0000   0.0000   0.3127
   7.360   1.2969   0.03829   0.03322  -0.1235  0.3277  0.0833  -3.1401   0.0000   0.0000   0.0000   0.3126
   7.370   1.2976   0.03833   0.03326  -0.1234  0.3277  0.0834  -3.1407   0.0000   0.0000   0.0000   0.3125
[...]
  10.120   1.4551   0.05426   0.04996  -0.1174  0.3168  0.3017  -3.2333   0.0000   0.0000   0.0000   0.2906
  10.130   1.4559   0.05433   0.05003  -0.1174  0.3168  0.3041  -3.2338   0.0000   0.0000   0.0000   0.2906
  10.140   1.4564   0.05439   0.05010  -0.1174  0.3167  0.3043  -3.2340   0.0000   0.0000   0.0000   0.2905
  10.150   1.4569   0.05446   0.05016  -0.1174  0.3167  0.3045  -3.2342   0.0000   0.0000   0.0000   0.2904
  10.160   1.4574   0.05453   0.05023  -0.1173  0.3166  0.3046  -3.2343   0.0000   0.0000   0.0000   0.2904
  10.170   1.4578   0.05459   0.05030  -0.1173  0.3166  0.3049  -3.2345   0.0000   0.0000   0.0000   0.2903
  10.180   1.4583   0.05466   0.05037  -0.1173  0.3165  0.3055  -3.2346   0.0000   0.0000   0.0000   0.2902
  10.190   1.4587   0.05473   0.05044  -0.1173  0.3165  0.3059  -3.2347   0.0000   0.0000   0.0000   0.2902
  10.200   1.4592   0.05480   0.05052  -0.1173  0.3164  0.3063  -3.2348   0.0000   0.0000   0.0000   0.2901
  10.210   1.4596   0.05488   0.05059  -0.1172  0.3163  0.3066  -3.2348   0.0000   0.0000   0.0000   0.2900
  10.220   1.4599   0.05495   0.05067  -0.1172  0.3162  0.3069  -3.2348   0.0000   0.0000   0.0000   0.2900
  10.230   1.4603   0.05503   0.05074  -0.1172  0.3162  0.3072  -3.2347   0.0000   0.0000   0.0000   0.2899
  10.240   1.4605   0.05511   0.05083  -0.1171  0.3161  0.3075  -3.2344   0.0000   0.0000   0.0000   0.2898
  10.250   1.4604   0.05521   0.05093  -0.1171  0.3160  0.3077  -3.2337   0.0000   0.0000   0.0000   0.2898
  10.260   1.4602   0.05533   0.05105  -0.1170  0.3159  0.3079  -3.2326   0.0000   0.0000   0.0000   0.2897
  10.270   1.4597   0.05546   0.05119  -0.1169  0.3158  0.3080  -3.2312   0.0000   0.0000   0.0000   0.2897
  10.280   1.4591   0.05560   0.05133  -0.1169  0.3156  0.3082  -3.2295   0.0000   0.0000   0.0000   0.2896
  10.290   1.4582   0.05576   0.05149  -0.1168  0.3155  0.3083  -3.2274   0.0000   0.0000   0.0000   0.2895
  10.300   1.4574   0.05591   0.05164  -0.1167  0.3153  0.3084  -3.2254   0.0000   0.0000   0.0000   0.2895
  10.310   1.4568   0.05606   0.05179  -0.1166  0.3152  0.3086  -3.2237   0.0000   0.0000   0.0000   0.2894
  10.320   1.4562   0.05620   0.05193  -0.1165  0.3150  0.3089  -3.2220   0.0000   0.0000   0.0000   0.2894
  10.330   1.4556   0.05634   0.05207  -0.1164  0.3148  0.3092  -3.2205   0.0000   0.0000   0.0000   0.2893
  10.340   1.4551   0.05647   0.05220  -0.1164  0.3146  0.3094  -3.2189   0.0000   0.0000   0.0000   0.2892
  10.350   1.4546   0.05661   0.05234  -0.1163  0.3144  0.3097  -3.2174   0.0000   0.0000   0.0000   0.2892
  10.360   1.4543   0.05672   0.05245  -0.1162  0.3142  0.3101  -3.2164   0.0000   0.0000   0.0000   0.2891
  10.370   1.4545   0.05681   0.05255  -0.1162  0.3141  0.3105  -3.2161   0.0000   0.0000   0.0000   0.2891
  10.380   1.4547   0.05691   0.05264  -0.1162  0.3139  0.3109  -3.2157   0.0000   0.0000   0.0000   0.2890
  10.390   1.4548   0.05700   0.05274  -0.1161  0.3137  0.3113  -3.2152   0.0000   0.0000   0.0000   0.2889
  10.400   1.4550   0.05710   0.05284  -0.1161  0.3135  0.3119  -3.2148   0.0000   0.0000   0.0000   0.2889
  10.410   1.4551   0.05719   0.05294  -0.1161  0.3133  0.3124  -3.2143   0.0000   0.0000   0.0000   0.2888
  10.420   1.4551   0.05729   0.05304  -0.1160  0.3131  0.3128  -3.2137   0.0000   0.0000   0.0000   0.2888
  10.430   1.4552   0.05740   0.05314  -0.1160  0.3128  0.3132  -3.2131   0.0000   0.0000   0.0000   0.2887
  10.440   1.4551   0.05750   0.05325  -0.1159  0.3126  0.3136  -3.2124   0.0000   0.0000   0.0000   0.2887
  10.450   1.4550   0.05761   0.05336  -0.1159  0.3123  0.3139  -3.2116   0.0000   0.0000   0.0000   0.2886
  10.460   1.4549   0.05772   0.05347  -0.1159  0.3120  0.3143  -3.2107   0.0000   0.0000   0.0000   0.2885
  10.470   1.4547   0.05784   0.05359  -0.1158  0.3116  0.3146  -3.2097   0.0000   0.0000   0.0000   0.2885
  10.480   1.4544   0.05796   0.05371  -0.1157  0.3113  0.3149  -3.2086   0.0000   0.0000   0.0000   0.2884
  10.490   1.4540   0.05809   0.05384  -0.1157  0.3109  0.3152  -3.2073   0.0000   0.0000   0.0000   0.2884
  10.500   1.4535   0.05822   0.05398  -0.1156  0.3105  0.3155  -3.2059   0.0000   0.0000   0.0000   0.2883
  10.510   1.4528   0.05837   0.05412  -0.1155  0.3100  0.3158  -3.2042   0.0000   0.0000   0.0000   0.2883
  10.520   1.4519   0.05852   0.05428  -0.1154  0.3095  0.3160  -3.2022   0.0000   0.0000   0.0000   0.2882
  10.530   1.4508   0.05869   0.05445  -0.1153  0.3089  0.3162  -3.1998   0.0000   0.0000   0.0000   0.2882
  10.540   1.4494   0.05889   0.05464  -0.1152  0.3083  0.3163  -3.1969   0.0000   0.0000   0.0000   0.2881
  10.550   1.4475   0.05911   0.05486  -0.1150  0.3075  0.3164  -3.1932   0.0000   0.0000   0.0000   0.2881
  10.560   1.4439   0.05944   0.05520  -0.1148  0.3066  0.3162  -3.1868   0.0000   0.0000   0.0000   0.2880
  10.570   1.4243   0.06083   0.05657  -0.1136  0.3032  0.3136  -3.1539   0.0000   0.0000   0.0000   0.2881
  10.580   1.4213   0.06114   0.05688  -0.1134  0.3022  0.3135  -3.1484   0.0000   0.0000   0.0000   0.2881
  10.590   1.4185   0.06142   0.05716  -0.1132  0.3013  0.3134  -3.1439   0.0000   0.0000   0.0000   0.2881
  10.600   1.4175   0.06160   0.05733  -0.1131  0.3008  0.3136  -3.1418   0.0000   0.0000   0.0000   0.2880
  10.610   1.4162   0.06179   0.05752  -0.1130  0.3002  0.3138  -3.1395   0.0000   0.0000   0.0000   0.2880
  10.620   1.4126   0.06213   0.05786  -0.1127  0.2990  0.3136  -3.1342   0.0000   0.0000   0.0000   0.2879
  10.630   1.4077   0.06256   0.05829  -0.1124  0.2975  0.3132  -3.1274   0.0000   0.0000   0.0000   0.2879
  10.640   1.4010   0.06310   0.05883  -0.1120  0.2960  0.3124  -3.1183   0.0000   0.0000   0.0000   0.2879
  10.650   1.3926   0.06376   0.05948  -0.1115  0.2944  0.3112  -3.1057   0.0000   0.0000   0.0000   0.2879
  10.660   1.3880   0.06420   0.05992  -0.1112  0.2937  0.3108  -3.0963   0.0000   0.0000   0.0000   0.2879
  10.670   1.3844   0.06455   0.06027  -0.1110  0.2930  0.3106  -3.0886   0.0000   0.0000   0.0000   0.2879
  10.680   1.3805   0.06493   0.06065  -0.1107  0.2920  0.3103  -3.0795   0.0000   0.0000   0.0000   0.2879
  10.690   1.3778   0.06522   0.06094  -0.1106  0.2913  0.3102  -3.0723   0.0000   0.0000   0.0000   0.2879
  10.700   1.3760   0.06546   0.06117  -0.1104  0.2907  0.3103  -3.0689   0.0000   0.0000   0.0000   0.2879
  10.710   1.3745   0.06567   0.06138  -0.1103  0.2901  0.3104  -3.0661   0.0000   0.0000   0.0000   0.2878
  10.720   1.3733   0.06586   0.06158  -0.1102  0.2897  0.3106  -3.0638   0.0000   0.0000   0.0000   0.2878
  10.730   1.3722   0.06604   0.06176  -0.1101  0.2892  0.3108  -3.0617   0.0000   0.0000   0.0000   0.2878
  10.740   1.3713   0.06621   0.06193  -0.1100  0.2889  0.3111  -3.0598   0.0000   0.0000   0.0000   0.2877
  10.750   1.3704   0.06638   0.06210  -0.1100  0.2885  0.3113  -3.0580   0.0000   0.0000   0.0000   0.2877
  10.760   1.3697   0.06654   0.06226  -0.1099  0.2882  0.3116  -3.0564   0.0000   0.0000   0.0000   0.2876
  10.770   1.3690   0.06670   0.06243  -0.1098  0.2879  0.3120  -3.0548   0.0000   0.0000   0.0000   0.2876
  10.780   1.3682   0.06686   0.06259  -0.1098  0.2876  0.3124  -3.0532   0.0000   0.0000   0.0000   0.2875
  10.790   1.3674   0.06703   0.06275  -0.1097  0.2873  0.3126  -3.0515   0.0000   0.0000   0.0000   0.2875
  10.800   1.3666   0.06719   0.06292  -0.1096  0.2870  0.3129  -3.0498   0.0000   0.0000   0.0000   0.2875
  10.810   1.3658   0.06735   0.06308  -0.1095  0.2867  0.3131  -3.0481   0.0000   0.0000   0.0000   0.2874
  10.820   1.3650   0.06752   0.06325  -0.1095  0.2865  0.3134  -3.0464   0.0000   0.0000   0.0000   0.2874
  10.830   1.3642   0.06768   0.06342  -0.1094  0.2862  0.3136  -3.0447   0.0000   0.0000   0.0000   0.2873
  10.840   1.3634   0.06785   0.06358  -0.1093  0.2860  0.3138  -3.0429   0.0000   0.0000   0.0000   0.2873
  10.850   1.3624   0.06803   0.06376  -0.1092  0.2857  0.3141  -3.0409   0.0000   0.0000   0.0000   0.2873
  10.860   1.3594   0.06835   0.06409  -0.1090  0.2854  0.3140  -3.0355   0.0000   0.0000   0.0000   0.2872
  10.870   1.3561   0.06869   0.06442  -0.1088  0.2850  0.3138  -3.0293   0.0000   0.0000   0.0000   0.2872
  10.880   1.3548   0.06889   0.06463  -0.1087  0.2847  0.3139  -3.0261   0.0000   0.0000   0.0000   0.2872
  10.890   1.3537   0.06908   0.06482  -0.1087  0.2845  0.3141  -3.0234   0.0000   0.0000   0.0000   0.2872
  10.900   1.3528   0.06926   0.06500  -0.1086  0.2843  0.3144  -3.0208   0.0000   0.0000   0.0000   0.2871
  10.910   1.3518   0.06944   0.06518  -0.1085  0.2840  0.3146  -3.0181   0.0000   0.0000   0.0000   0.2871
  10.920   1.3507   0.06962   0.06537  -0.1084  0.2836  0.3148  -3.0151   0.0000   0.0000   0.0000   0.2871
  10.930   1.3492   0.06984   0.06558  -0.1083  0.2832  0.3149  -3.0112   0.0000   0.0000   0.0000   0.2870
  10.940   1.3475   0.07007   0.06582  -0.1082  0.2827  0.3150  -3.0065   0.0000   0.0000   0.0000   0.2870
  10.950   1.3458   0.07030   0.06605  -0.1081  0.2821  0.3151  -3.0018   0.0000   0.0000   0.0000   0.2870
  10.960   1.3443   0.07052   0.06627  -0.1080  0.2816  0.3152  -2.9969   0.0000   0.0000   0.0000   0.2870
  10.970   1.3427   0.07074   0.06649  -0.1079  0.2811  0.3153  -2.9918   0.0000   0.0000   0.0000   0.2869
  10.980   1.3412   0.07096   0.06671  -0.1078  0.2806  0.3154  -2.9865   0.0000   0.0000   0.0000   0.2869
  10.990   1.3396   0.07118   0.06693  -0.1077  0.2801  0.3155  -2.9822   0.0000   0.0000   0.0000   0.2869
  11.000   1.3380   0.07141   0.06716  -0.1075  0.2795  0.3156  -2.9792   0.0000   0.0000   0.0000   0.2869
  11.010   1.3363   0.07164   0.06739  -0.1074  0.2790  0.3157  -2.9761   0.0000   0.0000   0.0000   0.2868
  11.020   1.3344   0.07189   0.06764  -0.1073  0.2785  0.3158  -2.9728   0.0000   0.0000   0.0000   0.2868
  11.030   1.3322   0.07216   0.06791  -0.1072  0.2779  0.3158  -2.9691   0.0000   0.0000   0.0000   0.2868
  11.040   1.3297   0.07245   0.06820  -0.1070  0.2773  0.3158  -2.9650   0.0000   0.0000   0.0000   0.2868
  11.050   1.3176   0.07345   0.06920  -0.1064  0.2758  0.3142  -2.9455   0.0000   0.0000   0.0000   0.2870
  11.060   1.3138   0.07385   0.06959  -0.1062  0.2753  0.3139  -2.9389   0.0000   0.0000   0.0000   0.2870
  11.070   1.3130   0.07402   0.06977  -0.1061  0.2751  0.3141  -2.9367   0.0000   0.0000   0.0000   0.2870
  11.080   1.3125   0.07418   0.06992  -0.1061  0.2748  0.3144  -2.9348   0.0000   0.0000   0.0000   0.2869
  11.090   1.3121   0.07432   0.07007  -0.1061  0.2747  0.3147  -2.9333   0.0000   0.0000   0.0000   0.2869
  11.100   1.3118   0.07445   0.07020  -0.1060  0.2745  0.3150  -2.9319   0.0000   0.0000   0.0000   0.2868
  11.110   1.3116   0.07458   0.07033  -0.1060  0.2743  0.3154  -2.9306   0.0000   0.0000   0.0000   0.2868
  11.120   1.3115   0.07470   0.07046  -0.1059  0.2742  0.3157  -2.9295   0.0000   0.0000   0.0000   0.2868
  11.130   1.3114   0.07482   0.07058  -0.1059  0.2741  0.3160  -2.9284   0.0000   0.0000   0.0000   0.2867
  11.140   1.3114   0.07494   0.07069  -0.1059  0.2739  0.3164  -2.9275   0.0000   0.0000   0.0000   0.2867
  11.150   1.3114   0.07505   0.07081  -0.1059  0.2738  0.3167  -2.9266   0.0000   0.0000   0.0000   0.2866
  11.160   1.3115   0.07515   0.07091  -0.1058  0.2737  0.3170  -2.9258   0.0000   0.0000   0.0000   0.2866
  11.170   1.3116   0.07525   0.07102  -0.1058  0.2736  0.3172  -2.9251   0.0000   0.0000   0.0000   0.2865
  11.220   1.3126   0.07574   0.07151  -0.1057  0.2733  0.3183  -2.9222   0.0000   0.0000   0.0000   0.2862
  11.230   1.3128   0.07583   0.07161  -0.1057  0.2732  0.3185  -2.9216   0.0000   0.0000   0.0000   0.2862
  11.240   1.3129   0.07593   0.07171  -0.1057  0.2731  0.3188  -2.9208   0.0000   0.0000   0.0000   0.2861
  11.250   1.3130   0.07604   0.07181  -0.1057  0.2730  0.3190  -2.9201   0.0000   0.0000   0.0000   0.2861
  11.260   1.3131   0.07614   0.07192  -0.1056  0.2729  0.3192  -2.9192   0.0000   0.0000   0.0000   0.2860
  11.270   1.3132   0.07625   0.07203  -0.1056  0.2728  0.3194  -2.9182   0.0000   0.0000   0.0000   0.2860
  11.280   1.3132   0.07636   0.07214  -0.1056  0.2727  0.3196  -2.9172   0.0000   0.0000   0.0000   0.2859
  11.290   1.3131   0.07647   0.07225  -0.1055  0.2726  0.3198  -2.9160   0.0000   0.0000   0.0000   0.2859
  11.300   1.3130   0.07659   0.07237  -0.1055  0.2724  0.3199  -2.9146   0.0000   0.0000   0.0000   0.2858
  11.310   1.3128   0.07671   0.07250  -0.1055  0.2723  0.3201  -2.9130   0.0000   0.0000   0.0000   0.2858
  11.320   1.3125   0.07685   0.07263  -0.1054  0.2721  0.3202  -2.9112   0.0000   0.0000   0.0000   0.2857
  11.330   1.3121   0.07699   0.07278  -0.1054  0.2719  0.3203  -2.9090   0.0000   0.0000   0.0000   0.2857
  11.340   1.3116   0.07714   0.07293  -0.1053  0.2716  0.3204  -2.9064   0.0000   0.0000   0.0000   0.2857
  11.350   1.3107   0.07732   0.07311  -0.1053  0.2713  0.3205  -2.9029   0.0000   0.0000   0.0000   0.2856
  11.360   1.3086   0.07760   0.07339  -0.1051  0.2709  0.3205  -2.8966   0.0000   0.0000   0.0000   0.2856
  11.370   1.3050   0.07799   0.07378  -0.1050  0.2704  0.3204  -2.8899   0.0000   0.0000   0.0000   0.2857
  11.380   1.3018   0.07835   0.07414  -0.1048  0.2698  0.3204  -2.8840   0.0000   0.0000   0.0000   0.2857
  11.390   1.2995   0.07864   0.07443  -0.1047  0.2694  0.3204  -2.8798   0.0000   0.0000   0.0000   0.2857
  11.400   1.2976   0.07890   0.07470  -0.1046  0.2689  0.3204  -2.8761   0.0000   0.0000   0.0000   0.2857
  11.410   1.2957   0.07916   0.07495  -0.1045  0.2685  0.3204  -2.8727   0.0000   0.0000   0.0000   0.2857
  11.420   1.2939   0.07941   0.07520  -0.1044  0.2681  0.3205  -2.8693   0.0000   0.0000   0.0000   0.2857
  11.430   1.2920   0.07967   0.07546  -0.1042  0.2676  0.3205  -2.8660   0.0000   0.0000   0.0000   0.2857
  11.440   1.2900   0.07993   0.07573  -0.1041  0.2672  0.3205  -2.8624   0.0000   0.0000   0.0000   0.2857
  11.450   1.2871   0.08027   0.07606  -0.1040  0.2666  0.3204  -2.8576   0.0000   0.0000   0.0000   0.2857
  11.460   1.2846   0.08057   0.07637  -0.1039  0.2661  0.3204  -2.8533   0.0000   0.0000   0.0000   0.2857
  11.470   1.2829   0.08082   0.07662  -0.1038  0.2657  0.3205  -2.8502   0.0000   0.0000   0.0000   0.2857
  11.480   1.2815   0.08104   0.07684  -0.1037  0.2654  0.3205  -2.8474   0.0000   0.0000   0.0000   0.2857
  11.490   1.2807   0.08122   0.07701  -0.1036  0.2651  0.3206  -2.8452   0.0000   0.0000   0.0000   0.2857
  11.500   1.2800   0.08139   0.07718  -0.1036  0.2648  0.3207  -2.8429   0.0000   0.0000   0.0000   0.2856
  11.510   1.2792   0.08156   0.07735  -0.1035  0.2645  0.3208  -2.8405   0.0000   0.0000   0.0000   0.2856
  11.520   1.2785   0.08173   0.07752  -0.1035  0.2642  0.3208  -2.8381   0.0000   0.0000   0.0000   0.2856
  11.530   1.2777   0.08190   0.07770  -0.1034  0.2639  0.3209  -2.8355   0.0000   0.0000   0.0000   0.2856
  11.540   1.2763   0.08213   0.07793  -0.1033  0.2636  0.3210  -2.8319   0.0000   0.0000   0.0000   0.2856
  11.550   1.2741   0.08242   0.07822  -0.1032  0.2632  0.3210  -2.8275   0.0000   0.0000   0.0000   0.2856
  11.560   1.2718   0.08272   0.07852  -0.1031  0.2628  0.3210  -2.8229   0.0000   0.0000   0.0000   0.2856
  11.570   1.2706   0.08293   0.07873  -0.1030  0.2626  0.3210  -2.8203   0.0000   0.0000   0.0000   0.2856
  11.580   1.2699   0.08310   0.07890  -0.1030  0.2624  0.3211  -2.8186   0.0000   0.0000   0.0000   0.2855
  11.590   1.2695   0.08325   0.07906  -0.1029  0.2623  0.3212  -2.8172   0.0000   0.0000   0.0000   0.2855
  11.600   1.2692   0.08339   0.07920  -0.1029  0.2622  0.3212  -2.8162   0.0000   0.0000   0.0000   0.2855
  11.610   1.2689   0.08352   0.07933  -0.1029  0.2620  0.3213  -2.8153   0.0000   0.0000   0.0000   0.2854
  11.620   1.2688   0.08364   0.07945  -0.1028  0.2619  0.3214  -2.8145   0.0000   0.0000   0.0000   0.2854
  11.630   1.2688   0.08376   0.07957  -0.1028  0.2618  0.3215  -2.8138   0.0000   0.0000   0.0000   0.2853
  11.640   1.2688   0.08388   0.07969  -0.1028  0.2617  0.3216  -2.8133   0.0000   0.0000   0.0000   0.2853
  11.650   1.2688   0.08398   0.07980  -0.1028  0.2617  0.3216  -2.8129   0.0000   0.0000   0.0000   0.2852
  11.660   1.2689   0.08409   0.07990  -0.1027  0.2616  0.3217  -2.8125   0.0000   0.0000   0.0000   0.2852
  11.670   1.2691   0.08419   0.08000  -0.1027  0.2615  0.3218  -2.8123   0.0000   0.0000   0.0000   0.2851
  11.680   1.2693   0.08429   0.08011  -0.1027  0.2615  0.3218  -2.8120   0.0000   0.0000   0.0000   0.2851
  11.690   1.2694   0.08439   0.08021  -0.1027  0.2614  0.3219  -2.8118   0.0000   0.0000   0.0000   0.2850
  11.700   1.2696   0.08448   0.08030  -0.1027  0.2614  0.3219  -2.8116   0.0000   0.0000   0.0000   0.2850
  11.710   1.2698   0.08458   0.08040  -0.1026  0.2613  0.3220  -2.8113   0.0000   0.0000   0.0000   0.2849
  11.720   1.2700   0.08468   0.08050  -0.1026  0.2612  0.3220  -2.8111   0.0000   0.0000   0.0000   0.2849
  11.730   1.2702   0.08478   0.08060  -0.1026  0.2612  0.3221  -2.8109   0.0000   0.0000   0.0000   0.2848
  11.740   1.2704   0.08488   0.08070  -0.1026  0.2611  0.3221  -2.8107   0.0000   0.0000   0.0000   0.2848
  11.750   1.2705   0.08497   0.08080  -0.1026  0.2611  0.3221  -2.8106   0.0000   0.0000   0.0000   0.2847
  11.760   1.2707   0.08507   0.08090  -0.1025  0.2610  0.3222  -2.8104   0.0000   0.0000   0.0000   0.2847
  11.770   1.2709   0.08517   0.08100  -0.1025  0.2609  0.3222  -2.8103   0.0000   0.0000   0.0000   0.2846
  11.780   1.2710   0.08527   0.08110  -0.1025  0.2608  0.3222  -2.8101   0.0000   0.0000   0.0000   0.2846
  11.790   1.2711   0.08538   0.08121  -0.1025  0.2608  0.3222  -2.8098   0.0000   0.0000   0.0000   0.2845
  11.800   1.2712   0.08548   0.08131  -0.1025  0.2607  0.3222  -2.8095   0.0000   0.0000   0.0000   0.2845
  11.810   1.2713   0.08559   0.08142  -0.1024  0.2606  0.3223  -2.8091   0.0000   0.0000   0.0000   0.2844
  11.820   1.2713   0.08570   0.08154  -0.1024  0.2605  0.3223  -2.8087   0.0000   0.0000   0.0000   0.2844
  11.830   1.2713   0.08582   0.08165  -0.1024  0.2604  0.3223  -2.8082   0.0000   0.0000   0.0000   0.2843
  11.840   1.2712   0.08594   0.08177  -0.1024  0.2602  0.3223  -2.8076   0.0000   0.0000   0.0000   0.2843
  11.850   1.2711   0.08606   0.08190  -0.1023  0.2601  0.3223  -2.8069   0.0000   0.0000   0.0000   0.2842
  11.860   1.2709   0.08619   0.08203  -0.1023  0.2599  0.3223  -2.8061   0.0000   0.0000   0.0000   0.2842
  11.870   1.2706   0.08633   0.08216  -0.1023  0.2598  0.3223  -2.8052   0.0000   0.0000   0.0000   0.2842
  11.880   1.2703   0.08647   0.08230  -0.1022  0.2596  0.3223  -2.8042   0.0000   0.0000   0.0000   0.2841
  11.890   1.2699   0.08661   0.08245  -0.1022  0.2594  0.3223  -2.8030   0.0000   0.0000   0.0000   0.2841
  11.900   1.2694   0.08677   0.08260  -0.1021  0.2592  0.3223  -2.8017   0.0000   0.0000   0.0000   0.2841
  11.910   1.2688   0.08693   0.08277  -0.1021  0.2590  0.3224  -2.8002   0.0000   0.0000   0.0000   0.2840
  11.920   1.2681   0.08710   0.08294  -0.1021  0.2588  0.3224  -2.7985   0.0000   0.0000   0.0000   0.2840
  11.930   1.2669   0.08732   0.08316  -0.1020  0.2585  0.3224  -2.7960   0.0000   0.0000   0.0000   0.2840
  11.940   1.2636   0.08771   0.08355  -0.1019  0.2580  0.3224  -2.7896   0.0000   0.0000   0.0000   0.2841
  11.950   1.2575   0.08834   0.08418  -0.1016  0.2571  0.3223  -2.7783   0.0000   0.0000   0.0000   0.2842
  11.960   1.2552   0.08865   0.08449  -0.1015  0.2568  0.3223  -2.7739   0.0000   0.0000   0.0000   0.2842
  11.970   1.2534   0.08891   0.08476  -0.1014  0.2564  0.3224  -2.7703   0.0000   0.0000   0.0000   0.2843
  11.980   1.2519   0.08916   0.08501  -0.1014  0.2561  0.3224  -2.7670   0.0000   0.0000   0.0000   0.2843
  11.990   1.2505   0.08939   0.08524  -0.1013  0.2558  0.3224  -2.7640   0.0000   0.0000   0.0000   0.2843
  12.000   1.2494   0.08960   0.08545  -0.1012  0.2555  0.3224  -2.7616   0.0000   0.0000   0.0000   0.2843


