xflr5 v6.61

 Calculated polar for: Airfoil-RevE-HC

 1 1 Reynolds number fixed          Mach number fixed         

 xtrf =   1.000 (top)        1.000 (bottom)
 Mach =   0.000     Re =     6.000 e 6     Ncrit =   0.500

  alpha     CL        CD       CDp       Cm    Top Xtr Bot Xtr   Cpmin    Chinge    XCp    
 ------- -------- --------- --------- -------- ------- ------- -------- --------- ---------
   0.000   0.7776   0.01130   0.00533  -0.1612  0.3384  0.0203  -2.1542   0.0000   0.0000   0.0000   0.4504
   0.010   0.7785   0.01130   0.00534  -0.1612  0.3383  0.0203  -2.1552   0.0000   0.0000   0.0000   0.4501
   0.020   0.7794   0.01130   0.00534  -0.1611  0.3383  0.0203  -2.1562   0.0000   0.0000   0.0000   0.4498
   0.030   0.7804   0.01131   0.00534  -0.1611  0.3383  0.0203  -2.1571   0.0000   0.0000   0.0000   0.4495
   0.040   0.7813   0.01131   0.00535  -0.1611  0.3383  0.0203  -2.1581   0.0000   0.0000   0.0000   0.4492
   0.050   0.7822   0.01132   0.00535  -0.1610  0.3383  0.0203  -2.1591   0.0000   0.0000   0.0000   0.4489
   0.060   0.7831   0.01132   0.00536  -0.1610  0.3383  0.0203  -2.1600   0.0000   0.0000   0.0000   0.4485
   0.070   0.7840   0.01132   0.00536  -0.1610  0.3383  0.0204  -2.1610   0.0000   0.0000   0.0000   0.4482
   0.080   0.7849   0.01133   0.00536  -0.1609  0.3383  0.0204  -2.1620   0.0000   0.0000   0.0000   0.4479
   0.090   0.7858   0.01133   0.00537  -0.1609  0.3382  0.0204  -2.1629   0.0000   0.0000   0.0000   0.4476
   0.100   0.7867   0.01134   0.00537  -0.1609  0.3382  0.0204  -2.1639   0.0000   0.0000   0.0000   0.4473
   0.110   0.7876   0.01134   0.00538  -0.1609  0.3382  0.0204  -2.1649   0.0000   0.0000   0.0000   0.4470
   0.120   0.7886   0.01134   0.00538  -0.1608  0.3382  0.0204  -2.1659   0.0000   0.0000   0.0000   0.4467
   0.130   0.7895   0.01135   0.00539  -0.1608  0.3382  0.0204  -2.1668   0.0000   0.0000   0.0000   0.4464
   0.140   0.7904   0.01135   0.00539  -0.1608  0.3382  0.0204  -2.1678   0.0000   0.0000   0.0000   0.4461
   0.150   0.7913   0.01135   0.00539  -0.1607  0.3382  0.0204  -2.1688   0.0000   0.0000   0.0000   0.4457
   0.160   0.7922   0.01136   0.00540  -0.1607  0.3382  0.0204  -2.1697   0.0000   0.0000   0.0000   0.4454
   0.170   0.7931   0.01136   0.00540  -0.1607  0.3381  0.0204  -2.1707   0.0000   0.0000   0.0000   0.4451
   0.180   0.7940   0.01137   0.00541  -0.1607  0.3381  0.0204  -2.1717   0.0000   0.0000   0.0000   0.4448
   0.190   0.7950   0.01137   0.00541  -0.1606  0.3381  0.0204  -2.1727   0.0000   0.0000   0.0000   0.4445
   0.200   0.7959   0.01137   0.00542  -0.1606  0.3381  0.0204  -2.1736   0.0000   0.0000   0.0000   0.4442
   0.210   0.7968   0.01138   0.00542  -0.1606  0.3381  0.0204  -2.1746   0.0000   0.0000   0.0000   0.4439
   0.220   0.7977   0.01138   0.00542  -0.1605  0.3381  0.0205  -2.1756   0.0000   0.0000   0.0000   0.4436
   0.230   0.7986   0.01139   0.00543  -0.1605  0.3381  0.0205  -2.1766   0.0000   0.0000   0.0000   0.4433
   0.240   0.7995   0.01139   0.00543  -0.1605  0.3381  0.0205  -2.1775   0.0000   0.0000   0.0000   0.4430
   0.250   0.8005   0.01139   0.00544  -0.1605  0.3380  0.0205  -2.1785   0.0000   0.0000   0.0000   0.4427
   0.260   0.8014   0.01140   0.00544  -0.1604  0.3380  0.0205  -2.1795   0.0000   0.0000   0.0000   0.4424
   0.270   0.8023   0.01140   0.00545  -0.1604  0.3380  0.0205  -2.1805   0.0000   0.0000   0.0000   0.4421
   0.280   0.8032   0.01140   0.00545  -0.1604  0.3380  0.0205  -2.1814   0.0000   0.0000   0.0000   0.4418
   0.290   0.8041   0.01141   0.00545  -0.1604  0.3380  0.0205  -2.1824   0.0000   0.0000   0.0000   0.4415
   0.300   0.8050   0.01141   0.00546  -0.1603  0.3380  0.0205  -2.1834   0.0000   0.0000   0.0000   0.4412
   0.310   0.8060   0.01142   0.00546  -0.1603  0.3380  0.0205  -2.1844   0.0000   0.0000   0.0000   0.4409
   0.320   0.8069   0.01142   0.00547  -0.1603  0.3380  0.0205  -2.1853   0.0000   0.0000   0.0000   0.4406
   0.330   0.8078   0.01142   0.00547  -0.1602  0.3379  0.0205  -2.1863   0.0000   0.0000   0.0000   0.4403
   0.340   0.8087   0.01143   0.00548  -0.1602  0.3379  0.0205  -2.1873   0.0000   0.0000   0.0000   0.4400
   0.350   0.8096   0.01143   0.00548  -0.1602  0.3379  0.0205  -2.1883   0.0000   0.0000   0.0000   0.4397
   0.360   0.8105   0.01144   0.00548  -0.1602  0.3379  0.0205  -2.1892   0.0000   0.0000   0.0000   0.4394
   0.370   0.8115   0.01144   0.00549  -0.1601  0.3379  0.0206  -2.1902   0.0000   0.0000   0.0000   0.4391
   0.380   0.8124   0.01144   0.00549  -0.1601  0.3379  0.0206  -2.1912   0.0000   0.0000   0.0000   0.4388
   0.390   0.8133   0.01145   0.00550  -0.1601  0.3379  0.0206  -2.1922   0.0000   0.0000   0.0000   0.4385
   0.400   0.8142   0.01145   0.00550  -0.1601  0.3379  0.0206  -2.1931   0.0000   0.0000   0.0000   0.4382
   0.410   0.8151   0.01146   0.00551  -0.1600  0.3378  0.0206  -2.1941   0.0000   0.0000   0.0000   0.4380
   0.420   0.8160   0.01146   0.00551  -0.1600  0.3378  0.0206  -2.1951   0.0000   0.0000   0.0000   0.4377
   0.430   0.8170   0.01146   0.00552  -0.1600  0.3378  0.0206  -2.1960   0.0000   0.0000   0.0000   0.4374
   0.440   0.8179   0.01147   0.00552  -0.1599  0.3378  0.0206  -2.1970   0.0000   0.0000   0.0000   0.4371
   0.450   0.8188   0.01147   0.00552  -0.1599  0.3378  0.0206  -2.1980   0.0000   0.0000   0.0000   0.4368
   0.460   0.8197   0.01148   0.00553  -0.1599  0.3378  0.0207  -2.1990   0.0000   0.0000   0.0000   0.4365
   0.470   0.8206   0.01148   0.00553  -0.1599  0.3378  0.0207  -2.1999   0.0000   0.0000   0.0000   0.4362
   0.480   0.8215   0.01148   0.00554  -0.1598  0.3377  0.0207  -2.2009   0.0000   0.0000   0.0000   0.4359
   0.490   0.8224   0.01149   0.00554  -0.1598  0.3377  0.0207  -2.2019   0.0000   0.0000   0.0000   0.4357
   0.500   0.8234   0.01149   0.00555  -0.1598  0.3377  0.0207  -2.2029   0.0000   0.0000   0.0000   0.4354
   0.510   0.8243   0.01150   0.00555  -0.1597  0.3377  0.0208  -2.2038   0.0000   0.0000   0.0000   0.4351
   0.520   0.8252   0.01150   0.00556  -0.1597  0.3377  0.0208  -2.2048   0.0000   0.0000   0.0000   0.4348
   0.530   0.8261   0.01150   0.00556  -0.1597  0.3377  0.0208  -2.2057   0.0000   0.0000   0.0000   0.4345
   0.540   0.8270   0.01151   0.00556  -0.1597  0.3377  0.0209  -2.2067   0.0000   0.0000   0.0000   0.4342
   0.550   0.8279   0.01151   0.00557  -0.1596  0.3377  0.0209  -2.2076   0.0000   0.0000   0.0000   0.4340
   0.560   0.8287   0.01152   0.00557  -0.1596  0.3376  0.0209  -2.2086   0.0000   0.0000   0.0000   0.4337
   0.570   0.8296   0.01152   0.00558  -0.1596  0.3376  0.0210  -2.2095   0.0000   0.0000   0.0000   0.4334
   0.580   0.8305   0.01153   0.00559  -0.1595  0.3376  0.0210  -2.2105   0.0000   0.0000   0.0000   0.4331
   0.590   0.8314   0.01153   0.00559  -0.1595  0.3376  0.0210  -2.2114   0.0000   0.0000   0.0000   0.4328
   0.600   0.8322   0.01154   0.00560  -0.1595  0.3376  0.0211  -2.2123   0.0000   0.0000   0.0000   0.4326
   0.610   0.8331   0.01154   0.00560  -0.1594  0.3376  0.0211  -2.2132   0.0000   0.0000   0.0000   0.4323
   0.620   0.8339   0.01155   0.00561  -0.1594  0.3376  0.0212  -2.2141   0.0000   0.0000   0.0000   0.4320
   0.630   0.8347   0.01155   0.00561  -0.1593  0.3376  0.0212  -2.2150   0.0000   0.0000   0.0000   0.4317
   0.640   0.8356   0.01156   0.00562  -0.1593  0.3375  0.0213  -2.2160   0.0000   0.0000   0.0000   0.4315
   0.650   0.8364   0.01156   0.00563  -0.1593  0.3375  0.0214  -2.2169   0.0000   0.0000   0.0000   0.4312
   0.660   0.8372   0.01157   0.00563  -0.1592  0.3375  0.0214  -2.2177   0.0000   0.0000   0.0000   0.4309
   0.670   0.8381   0.01157   0.00564  -0.1592  0.3375  0.0215  -2.2186   0.0000   0.0000   0.0000   0.4306
   0.680   0.8389   0.01158   0.00564  -0.1591  0.3375  0.0215  -2.2195   0.0000   0.0000   0.0000   0.4304
   0.690   0.8397   0.01159   0.00565  -0.1591  0.3375  0.0216  -2.2204   0.0000   0.0000   0.0000   0.4301
   0.700   0.8405   0.01159   0.00566  -0.1590  0.3375  0.0216  -2.2213   0.0000   0.0000   0.0000   0.4298
   0.710   0.8414   0.01160   0.00566  -0.1590  0.3375  0.0217  -2.2222   0.0000   0.0000   0.0000   0.4296
   0.720   0.8422   0.01160   0.00567  -0.1590  0.3375  0.0217  -2.2231   0.0000   0.0000   0.0000   0.4293
   0.730   0.8430   0.01161   0.00568  -0.1589  0.3374  0.0218  -2.2240   0.0000   0.0000   0.0000   0.4290
   0.740   0.8438   0.01161   0.00568  -0.1589  0.3374  0.0218  -2.2249   0.0000   0.0000   0.0000   0.4287
   0.750   0.8446   0.01162   0.00569  -0.1588  0.3374  0.0219  -2.2258   0.0000   0.0000   0.0000   0.4285
   0.760   0.8454   0.01163   0.00569  -0.1588  0.3374  0.0219  -2.2266   0.0000   0.0000   0.0000   0.4282
   0.770   0.8463   0.01163   0.00570  -0.1587  0.3374  0.0220  -2.2275   0.0000   0.0000   0.0000   0.4279
   0.780   0.8471   0.01164   0.00571  -0.1587  0.3374  0.0220  -2.2284   0.0000   0.0000   0.0000   0.4277
   0.790   0.8479   0.01164   0.00571  -0.1587  0.3374  0.0221  -2.2293   0.0000   0.0000   0.0000   0.4274
   0.800   0.8487   0.01165   0.00572  -0.1586  0.3374  0.0221  -2.2302   0.0000   0.0000   0.0000   0.4271
   0.810   0.8496   0.01165   0.00573  -0.1586  0.3374  0.0222  -2.2311   0.0000   0.0000   0.0000   0.4269
   0.820   0.8504   0.01166   0.00573  -0.1585  0.3373  0.0222  -2.2320   0.0000   0.0000   0.0000   0.4266
   0.830   0.8513   0.01167   0.00574  -0.1585  0.3373  0.0222  -2.2329   0.0000   0.0000   0.0000   0.4263
   0.840   0.8521   0.01167   0.00574  -0.1585  0.3373  0.0223  -2.2338   0.0000   0.0000   0.0000   0.4261
   0.850   0.8529   0.01168   0.00575  -0.1584  0.3373  0.0223  -2.2347   0.0000   0.0000   0.0000   0.4258
   0.860   0.8538   0.01168   0.00576  -0.1584  0.3373  0.0224  -2.2356   0.0000   0.0000   0.0000   0.4256
   0.870   0.8546   0.01169   0.00576  -0.1583  0.3373  0.0224  -2.2366   0.0000   0.0000   0.0000   0.4253
   0.880   0.8555   0.01169   0.00577  -0.1583  0.3373  0.0224  -2.2375   0.0000   0.0000   0.0000   0.4250
   0.890   0.8563   0.01170   0.00577  -0.1583  0.3373  0.0225  -2.2384   0.0000   0.0000   0.0000   0.4248
   0.900   0.8572   0.01170   0.00578  -0.1582  0.3373  0.0225  -2.2393   0.0000   0.0000   0.0000   0.4245
   0.910   0.8580   0.01171   0.00579  -0.1582  0.3372  0.0225  -2.2402   0.0000   0.0000   0.0000   0.4243
   0.920   0.8589   0.01171   0.00579  -0.1582  0.3372  0.0226  -2.2411   0.0000   0.0000   0.0000   0.4240
   0.930   0.8598   0.01172   0.00580  -0.1581  0.3372  0.0226  -2.2421   0.0000   0.0000   0.0000   0.4237
   0.940   0.8606   0.01172   0.00580  -0.1581  0.3372  0.0227  -2.2430   0.0000   0.0000   0.0000   0.4235
   0.950   0.8615   0.01173   0.00581  -0.1581  0.3372  0.0227  -2.2439   0.0000   0.0000   0.0000   0.4232
   0.960   0.8624   0.01173   0.00581  -0.1580  0.3372  0.0227  -2.2448   0.0000   0.0000   0.0000   0.4230
   0.970   0.8632   0.01174   0.00582  -0.1580  0.3372  0.0228  -2.2458   0.0000   0.0000   0.0000   0.4227
   0.980   0.8641   0.01175   0.00583  -0.1580  0.3372  0.0228  -2.2467   0.0000   0.0000   0.0000   0.4224
   0.990   0.8650   0.01175   0.00583  -0.1579  0.3372  0.0228  -2.2476   0.0000   0.0000   0.0000   0.4222
   1.000   0.8658   0.01176   0.00584  -0.1579  0.3372  0.0228  -2.2486   0.0000   0.0000   0.0000   0.4219
   1.010   0.8667   0.01176   0.00584  -0.1579  0.3371  0.0229  -2.2495   0.0000   0.0000   0.0000   0.4217
   1.020   0.8676   0.01177   0.00585  -0.1578  0.3371  0.0229  -2.2504   0.0000   0.0000   0.0000   0.4214
   1.030   0.8685   0.01177   0.00585  -0.1578  0.3371  0.0229  -2.2514   0.0000   0.0000   0.0000   0.4212
   1.040   0.8694   0.01178   0.00586  -0.1578  0.3371  0.0229  -2.2523   0.0000   0.0000   0.0000   0.4209
   1.050   0.8702   0.01178   0.00587  -0.1577  0.3371  0.0230  -2.2532   0.0000   0.0000   0.0000   0.4207
   1.060   0.8711   0.01179   0.00587  -0.1577  0.3371  0.0230  -2.2542   0.0000   0.0000   0.0000   0.4204
   1.070   0.8720   0.01179   0.00588  -0.1577  0.3371  0.0230  -2.2551   0.0000   0.0000   0.0000   0.4202
   1.080   0.8729   0.01180   0.00588  -0.1576  0.3371  0.0230  -2.2561   0.0000   0.0000   0.0000   0.4199
   1.090   0.8738   0.01180   0.00589  -0.1576  0.3371  0.0230  -2.2570   0.0000   0.0000   0.0000   0.4196
   1.100   0.8747   0.01181   0.00589  -0.1576  0.3370  0.0231  -2.2580   0.0000   0.0000   0.0000   0.4194
   1.110   0.8755   0.01181   0.00590  -0.1575  0.3370  0.0231  -2.2589   0.0000   0.0000   0.0000   0.4191
   1.120   0.8764   0.01182   0.00590  -0.1575  0.3370  0.0231  -2.2598   0.0000   0.0000   0.0000   0.4189
   1.130   0.8773   0.01182   0.00591  -0.1575  0.3370  0.0231  -2.2608   0.0000   0.0000   0.0000   0.4186
   1.140   0.8782   0.01183   0.00592  -0.1575  0.3370  0.0231  -2.2617   0.0000   0.0000   0.0000   0.4184
   1.150   0.8791   0.01183   0.00592  -0.1574  0.3370  0.0231  -2.2627   0.0000   0.0000   0.0000   0.4181
   1.160   0.8800   0.01184   0.00593  -0.1574  0.3370  0.0231  -2.2636   0.0000   0.0000   0.0000   0.4179
   1.170   0.8809   0.01184   0.00593  -0.1574  0.3370  0.0231  -2.2646   0.0000   0.0000   0.0000   0.4177
   1.180   0.8818   0.01185   0.00594  -0.1573  0.3370  0.0231  -2.2655   0.0000   0.0000   0.0000   0.4174
   1.190   0.8827   0.01185   0.00594  -0.1573  0.3369  0.0232  -2.2665   0.0000   0.0000   0.0000   0.4172
   1.200   0.8836   0.01186   0.00595  -0.1573  0.3369  0.0232  -2.2674   0.0000   0.0000   0.0000   0.4169
   1.210   0.8845   0.01186   0.00595  -0.1573  0.3369  0.0232  -2.2684   0.0000   0.0000   0.0000   0.4167
   1.220   0.8854   0.01187   0.00596  -0.1572  0.3369  0.0232  -2.2693   0.0000   0.0000   0.0000   0.4164
   1.230   0.8863   0.01187   0.00596  -0.1572  0.3369  0.0232  -2.2703   0.0000   0.0000   0.0000   0.4162
   1.240   0.8872   0.01188   0.00597  -0.1572  0.3369  0.0232  -2.2712   0.0000   0.0000   0.0000   0.4159
   1.250   0.8881   0.01188   0.00598  -0.1571  0.3369  0.0232  -2.2722   0.0000   0.0000   0.0000   0.4157
   1.260   0.8890   0.01189   0.00598  -0.1571  0.3369  0.0232  -2.2731   0.0000   0.0000   0.0000   0.4154
   1.270   0.8898   0.01189   0.00599  -0.1571  0.3369  0.0232  -2.2741   0.0000   0.0000   0.0000   0.4152
   1.280   0.8907   0.01190   0.00599  -0.1570  0.3368  0.0232  -2.2750   0.0000   0.0000   0.0000   0.4150
   1.290   0.8916   0.01190   0.00600  -0.1570  0.3368  0.0233  -2.2760   0.0000   0.0000   0.0000   0.4147
   1.300   0.8925   0.01191   0.00600  -0.1570  0.3368  0.0233  -2.2769   0.0000   0.0000   0.0000   0.4145
   1.310   0.8934   0.01191   0.00601  -0.1570  0.3368  0.0233  -2.2779   0.0000   0.0000   0.0000   0.4142
   1.320   0.8943   0.01192   0.00601  -0.1569  0.3368  0.0233  -2.2788   0.0000   0.0000   0.0000   0.4140
   1.330   0.8952   0.01192   0.00602  -0.1569  0.3368  0.0233  -2.2798   0.0000   0.0000   0.0000   0.4138
   1.340   0.8961   0.01193   0.00602  -0.1569  0.3368  0.0233  -2.2808   0.0000   0.0000   0.0000   0.4135
   1.350   0.8970   0.01193   0.00603  -0.1569  0.3368  0.0233  -2.2817   0.0000   0.0000   0.0000   0.4133
   1.360   0.8979   0.01194   0.00604  -0.1568  0.3368  0.0233  -2.2827   0.0000   0.0000   0.0000   0.4130
   1.370   0.8988   0.01194   0.00604  -0.1568  0.3367  0.0233  -2.2836   0.0000   0.0000   0.0000   0.4128
   1.380   0.8997   0.01195   0.00605  -0.1568  0.3367  0.0233  -2.2846   0.0000   0.0000   0.0000   0.4126
   1.390   0.9007   0.01195   0.00605  -0.1567  0.3367  0.0234  -2.2855   0.0000   0.0000   0.0000   0.4123
   1.400   0.9016   0.01196   0.00606  -0.1567  0.3367  0.0234  -2.2865   0.0000   0.0000   0.0000   0.4121
   1.410   0.9025   0.01196   0.00606  -0.1567  0.3367  0.0234  -2.2874   0.0000   0.0000   0.0000   0.4119
   1.420   0.9034   0.01197   0.00607  -0.1567  0.3367  0.0234  -2.2884   0.0000   0.0000   0.0000   0.4116
   1.430   0.9043   0.01197   0.00607  -0.1566  0.3367  0.0234  -2.2893   0.0000   0.0000   0.0000   0.4114
   1.440   0.9052   0.01198   0.00608  -0.1566  0.3367  0.0234  -2.2903   0.0000   0.0000   0.0000   0.4112
   1.450   0.9061   0.01198   0.00609  -0.1566  0.3367  0.0234  -2.2912   0.0000   0.0000   0.0000   0.4109
   1.460   0.9070   0.01199   0.00609  -0.1566  0.3367  0.0234  -2.2922   0.0000   0.0000   0.0000   0.4107
   1.470   0.9079   0.01199   0.00610  -0.1565  0.3366  0.0234  -2.2932   0.0000   0.0000   0.0000   0.4105
   1.480   0.9088   0.01200   0.00610  -0.1565  0.3366  0.0234  -2.2941   0.0000   0.0000   0.0000   0.4102
   1.490   0.9097   0.01200   0.00611  -0.1565  0.3366  0.0235  -2.2951   0.0000   0.0000   0.0000   0.4100
   1.500   0.9106   0.01201   0.00611  -0.1564  0.3366  0.0235  -2.2960   0.0000   0.0000   0.0000   0.4098
   1.510   0.9115   0.01201   0.00612  -0.1564  0.3366  0.0235  -2.2970   0.0000   0.0000   0.0000   0.4095
   1.520   0.9124   0.01202   0.00612  -0.1564  0.3366  0.0235  -2.2979   0.0000   0.0000   0.0000   0.4093
   1.530   0.9133   0.01202   0.00613  -0.1564  0.3366  0.0235  -2.2989   0.0000   0.0000   0.0000   0.4091
   1.540   0.9142   0.01203   0.00614  -0.1563  0.3366  0.0235  -2.2998   0.0000   0.0000   0.0000   0.4088
   1.550   0.9151   0.01203   0.00614  -0.1563  0.3366  0.0235  -2.3008   0.0000   0.0000   0.0000   0.4086
   1.560   0.9160   0.01204   0.00615  -0.1563  0.3365  0.0235  -2.3018   0.0000   0.0000   0.0000   0.4084
   1.570   0.9169   0.01204   0.00615  -0.1563  0.3365  0.0235  -2.3027   0.0000   0.0000   0.0000   0.4081
   1.580   0.9178   0.01205   0.00616  -0.1562  0.3365  0.0235  -2.3037   0.0000   0.0000   0.0000   0.4079
   1.590   0.9187   0.01205   0.00616  -0.1562  0.3365  0.0236  -2.3046   0.0000   0.0000   0.0000   0.4077
   1.600   0.9196   0.01206   0.00617  -0.1562  0.3365  0.0236  -2.3056   0.0000   0.0000   0.0000   0.4075
   1.610   0.9205   0.01206   0.00617  -0.1561  0.3365  0.0236  -2.3065   0.0000   0.0000   0.0000   0.4072
   1.620   0.9214   0.01207   0.00618  -0.1561  0.3365  0.0236  -2.3075   0.0000   0.0000   0.0000   0.4070
   1.630   0.9223   0.01208   0.00619  -0.1561  0.3365  0.0236  -2.3084   0.0000   0.0000   0.0000   0.4068
   1.640   0.9232   0.01208   0.00619  -0.1561  0.3365  0.0236  -2.3094   0.0000   0.0000   0.0000   0.4066
   1.650   0.9241   0.01209   0.00620  -0.1560  0.3364  0.0236  -2.3103   0.0000   0.0000   0.0000   0.4063
   1.660   0.9250   0.01209   0.00620  -0.1560  0.3364  0.0236  -2.3113   0.0000   0.0000   0.0000   0.4061
   1.670   0.9259   0.01210   0.00621  -0.1560  0.3364  0.0236  -2.3122   0.0000   0.0000   0.0000   0.4059
   1.680   0.9268   0.01210   0.00622  -0.1560  0.3364  0.0237  -2.3132   0.0000   0.0000   0.0000   0.4057
   1.690   0.9277   0.01211   0.00622  -0.1559  0.3364  0.0237  -2.3141   0.0000   0.0000   0.0000   0.4054
   1.700   0.9286   0.01211   0.00623  -0.1559  0.3364  0.0237  -2.3151   0.0000   0.0000   0.0000   0.4052
   1.710   0.9295   0.01212   0.00623  -0.1559  0.3364  0.0237  -2.3160   0.0000   0.0000   0.0000   0.4050
   1.720   0.9304   0.01212   0.00624  -0.1558  0.3364  0.0237  -2.3170   0.0000   0.0000   0.0000   0.4048
   1.730   0.9313   0.01213   0.00624  -0.1558  0.3364  0.0237  -2.3179   0.0000   0.0000   0.0000   0.4045
   1.740   0.9322   0.01213   0.00625  -0.1558  0.3363  0.0237  -2.3189   0.0000   0.0000   0.0000   0.4043
   1.750   0.9331   0.01214   0.00626  -0.1558  0.3363  0.0238  -2.3198   0.0000   0.0000   0.0000   0.4041
   1.760   0.9339   0.01215   0.00626  -0.1557  0.3363  0.0238  -2.3207   0.0000   0.0000   0.0000   0.4039
   1.770   0.9348   0.01215   0.00627  -0.1557  0.3363  0.0238  -2.3216   0.0000   0.0000   0.0000   0.4037
   1.780   0.9356   0.01216   0.00628  -0.1557  0.3363  0.0238  -2.3225   0.0000   0.0000   0.0000   0.4034
   1.790   0.9365   0.01217   0.00629  -0.1556  0.3363  0.0238  -2.3234   0.0000   0.0000   0.0000   0.4032
   1.800   0.9373   0.01217   0.00629  -0.1556  0.3363  0.0238  -2.3243   0.0000   0.0000   0.0000   0.4030
   1.810   0.9381   0.01218   0.00630  -0.1555  0.3363  0.0238  -2.3252   0.0000   0.0000   0.0000   0.4028
   1.820   0.9389   0.01219   0.00631  -0.1555  0.3363  0.0239  -2.3261   0.0000   0.0000   0.0000   0.4026
   1.830   0.9398   0.01219   0.00632  -0.1555  0.3362  0.0239  -2.3269   0.0000   0.0000   0.0000   0.4024
   1.840   0.9406   0.01220   0.00632  -0.1554  0.3362  0.0239  -2.3278   0.0000   0.0000   0.0000   0.4021
   1.850   0.9414   0.01221   0.00633  -0.1554  0.3362  0.0239  -2.3287   0.0000   0.0000   0.0000   0.4019
   1.860   0.9422   0.01222   0.00634  -0.1553  0.3362  0.0240  -2.3295   0.0000   0.0000   0.0000   0.4017
   1.870   0.9430   0.01222   0.00635  -0.1553  0.3362  0.0240  -2.3304   0.0000   0.0000   0.0000   0.4015
   1.880   0.9437   0.01223   0.00636  -0.1552  0.3362  0.0240  -2.3312   0.0000   0.0000   0.0000   0.4013
   1.890   0.9445   0.01224   0.00636  -0.1552  0.3362  0.0241  -2.3321   0.0000   0.0000   0.0000   0.4011
   1.900   0.9453   0.01225   0.00637  -0.1552  0.3362  0.0241  -2.3329   0.0000   0.0000   0.0000   0.4008
   1.910   0.9461   0.01225   0.00638  -0.1551  0.3362  0.0242  -2.3338   0.0000   0.0000   0.0000   0.4006
   1.920   0.9469   0.01226   0.00639  -0.1551  0.3361  0.0242  -2.3346   0.0000   0.0000   0.0000   0.4004
   1.930   0.9477   0.01227   0.00640  -0.1550  0.3361  0.0243  -2.3355   0.0000   0.0000   0.0000   0.4002
   1.940   0.9485   0.01228   0.00641  -0.1550  0.3361  0.0244  -2.3363   0.0000   0.0000   0.0000   0.4000
   1.950   0.9492   0.01229   0.00642  -0.1549  0.3361  0.0244  -2.3372   0.0000   0.0000   0.0000   0.3998
   1.960   0.9500   0.01229   0.00642  -0.1549  0.3361  0.0245  -2.3380   0.0000   0.0000   0.0000   0.3996
   1.970   0.9508   0.01230   0.00643  -0.1548  0.3361  0.0245  -2.3389   0.0000   0.0000   0.0000   0.3993
   1.980   0.9516   0.01231   0.00644  -0.1548  0.3361  0.0246  -2.3397   0.0000   0.0000   0.0000   0.3991
   1.990   0.9524   0.01232   0.00645  -0.1548  0.3361  0.0247  -2.3406   0.0000   0.0000   0.0000   0.3989
   2.000   0.9532   0.01232   0.00646  -0.1547  0.3361  0.0247  -2.3415   0.0000   0.0000   0.0000   0.3987
   2.010   0.9540   0.01233   0.00647  -0.1547  0.3360  0.0248  -2.3423   0.0000   0.0000   0.0000   0.3985
   2.020   0.9548   0.01234   0.00647  -0.1546  0.3360  0.0249  -2.3432   0.0000   0.0000   0.0000   0.3983
   2.030   0.9557   0.01235   0.00648  -0.1546  0.3360  0.0250  -2.3441   0.0000   0.0000   0.0000   0.3981
   2.040   0.9565   0.01235   0.00649  -0.1546  0.3360  0.0250  -2.3449   0.0000   0.0000   0.0000   0.3979
   2.050   0.9573   0.01236   0.00650  -0.1545  0.3360  0.0251  -2.3458   0.0000   0.0000   0.0000   0.3977
   2.060   0.9581   0.01237   0.00650  -0.1545  0.3360  0.0252  -2.3467   0.0000   0.0000   0.0000   0.3975
   2.070   0.9589   0.01237   0.00651  -0.1544  0.3360  0.0253  -2.3476   0.0000   0.0000   0.0000   0.3972
   2.080   0.9598   0.01238   0.00652  -0.1544  0.3360  0.0254  -2.3485   0.0000   0.0000   0.0000   0.3970
   2.090   0.9606   0.01239   0.00653  -0.1544  0.3360  0.0255  -2.3493   0.0000   0.0000   0.0000   0.3968
   2.100   0.9614   0.01240   0.00654  -0.1543  0.3360  0.0256  -2.3502   0.0000   0.0000   0.0000   0.3966
   2.110   0.9623   0.01240   0.00654  -0.1543  0.3359  0.0256  -2.3511   0.0000   0.0000   0.0000   0.3964
   2.120   0.9631   0.01241   0.00655  -0.1543  0.3359  0.0257  -2.3520   0.0000   0.0000   0.0000   0.3962
   2.130   0.9639   0.01242   0.00656  -0.1542  0.3359  0.0258  -2.3529   0.0000   0.0000   0.0000   0.3960
   2.140   0.9648   0.01242   0.00656  -0.1542  0.3359  0.0259  -2.3538   0.0000   0.0000   0.0000   0.3958
   2.150   0.9656   0.01243   0.00657  -0.1542  0.3359  0.0260  -2.3547   0.0000   0.0000   0.0000   0.3956
   2.160   0.9665   0.01244   0.00658  -0.1541  0.3359  0.0260  -2.3556   0.0000   0.0000   0.0000   0.3954
   2.170   0.9673   0.01244   0.00659  -0.1541  0.3359  0.0261  -2.3565   0.0000   0.0000   0.0000   0.3952
   2.180   0.9682   0.01245   0.00659  -0.1540  0.3359  0.0261  -2.3574   0.0000   0.0000   0.0000   0.3950
   2.190   0.9690   0.01246   0.00660  -0.1540  0.3359  0.0262  -2.3583   0.0000   0.0000   0.0000   0.3948
   2.200   0.9699   0.01246   0.00661  -0.1540  0.3358  0.0262  -2.3592   0.0000   0.0000   0.0000   0.3946
   2.210   0.9708   0.01247   0.00662  -0.1540  0.3358  0.0263  -2.3601   0.0000   0.0000   0.0000   0.3944
   2.220   0.9716   0.01248   0.00662  -0.1539  0.3358  0.0263  -2.3611   0.0000   0.0000   0.0000   0.3942
   2.230   0.9725   0.01248   0.00663  -0.1539  0.3358  0.0264  -2.3620   0.0000   0.0000   0.0000   0.3940
   2.240   0.9733   0.01249   0.00664  -0.1539  0.3358  0.0264  -2.3629   0.0000   0.0000   0.0000   0.3938
   2.250   0.9742   0.01250   0.00664  -0.1538  0.3358  0.0265  -2.3638   0.0000   0.0000   0.0000   0.3936
   2.260   0.9751   0.01250   0.00665  -0.1538  0.3358  0.0266  -2.3647   0.0000   0.0000   0.0000   0.3934
   2.270   0.9759   0.01251   0.00666  -0.1538  0.3358  0.0266  -2.3656   0.0000   0.0000   0.0000   0.3932
   2.280   0.9768   0.01252   0.00667  -0.1537  0.3357  0.0267  -2.3665   0.0000   0.0000   0.0000   0.3930
   2.300   0.9785   0.01253   0.00668  -0.1537  0.3357  0.0268  -2.3684   0.0000   0.0000   0.0000   0.3926
   2.310   0.9794   0.01254   0.00669  -0.1536  0.3357  0.0269  -2.3693   0.0000   0.0000   0.0000   0.3924
   2.320   0.9802   0.01254   0.00669  -0.1536  0.3357  0.0270  -2.3702   0.0000   0.0000   0.0000   0.3922
   2.330   0.9811   0.01255   0.00670  -0.1536  0.3357  0.0271  -2.3711   0.0000   0.0000   0.0000   0.3920
   2.340   0.9820   0.01256   0.00671  -0.1535  0.3357  0.0272  -2.3720   0.0000   0.0000   0.0000   0.3918
   2.350   0.9828   0.01256   0.00672  -0.1535  0.3356  0.0272  -2.3729   0.0000   0.0000   0.0000   0.3916
   2.360   0.9837   0.01257   0.00672  -0.1535  0.3356  0.0273  -2.3738   0.0000   0.0000   0.0000   0.3914
   2.370   0.9846   0.01257   0.00673  -0.1535  0.3356  0.0274  -2.3748   0.0000   0.0000   0.0000   0.3912
   2.380   0.9854   0.01258   0.00674  -0.1534  0.3356  0.0274  -2.3757   0.0000   0.0000   0.0000   0.3910
   2.390   0.9863   0.01259   0.00674  -0.1534  0.3356  0.0275  -2.3766   0.0000   0.0000   0.0000   0.3908
   2.400   0.9872   0.01259   0.00675  -0.1534  0.3356  0.0276  -2.3775   0.0000   0.0000   0.0000   0.3906
   2.410   0.9881   0.01260   0.00676  -0.1533  0.3355  0.0276  -2.3784   0.0000   0.0000   0.0000   0.3904
   2.420   0.9889   0.01261   0.00677  -0.1533  0.3355  0.0277  -2.3794   0.0000   0.0000   0.0000   0.3902
   2.430   0.9898   0.01261   0.00677  -0.1533  0.3355  0.0277  -2.3803   0.0000   0.0000   0.0000   0.3900
   2.440   0.9907   0.01262   0.00678  -0.1532  0.3355  0.0277  -2.3812   0.0000   0.0000   0.0000   0.3898
   2.450   0.9915   0.01263   0.00679  -0.1532  0.3355  0.0278  -2.3821   0.0000   0.0000   0.0000   0.3896
   2.460   0.9924   0.01263   0.00679  -0.1532  0.3354  0.0278  -2.3830   0.0000   0.0000   0.0000   0.3894
   2.470   0.9933   0.01264   0.00680  -0.1532  0.3354  0.0279  -2.3840   0.0000   0.0000   0.0000   0.3892
   2.480   0.9942   0.01265   0.00681  -0.1531  0.3354  0.0279  -2.3849   0.0000   0.0000   0.0000   0.3890
   2.490   0.9950   0.01265   0.00681  -0.1531  0.3354  0.0280  -2.3858   0.0000   0.0000   0.0000   0.3888
   2.500   0.9959   0.01266   0.00682  -0.1531  0.3354  0.0280  -2.3867   0.0000   0.0000   0.0000   0.3886
   2.510   0.9968   0.01267   0.00683  -0.1530  0.3353  0.0281  -2.3876   0.0000   0.0000   0.0000   0.3884
   2.520   0.9977   0.01267   0.00684  -0.1530  0.3353  0.0281  -2.3886   0.0000   0.0000   0.0000   0.3882
   2.530   0.9985   0.01268   0.00684  -0.1530  0.3353  0.0282  -2.3895   0.0000   0.0000   0.0000   0.3881
   2.540   0.9994   0.01269   0.00685  -0.1529  0.3353  0.0282  -2.3904   0.0000   0.0000   0.0000   0.3879
   2.550   1.0003   0.01269   0.00686  -0.1529  0.3353  0.0283  -2.3913   0.0000   0.0000   0.0000   0.3877
   2.560   1.0011   0.01270   0.00686  -0.1529  0.3352  0.0284  -2.3922   0.0000   0.0000   0.0000   0.3875
   2.570   1.0020   0.01271   0.00687  -0.1529  0.3352  0.0284  -2.3932   0.0000   0.0000   0.0000   0.3873
   2.580   1.0029   0.01271   0.00688  -0.1528  0.3352  0.0285  -2.3941   0.0000   0.0000   0.0000   0.3871
   2.590   1.0038   0.01272   0.00689  -0.1528  0.3352  0.0286  -2.3950   0.0000   0.0000   0.0000   0.3869
   2.600   1.0046   0.01273   0.00689  -0.1528  0.3352  0.0287  -2.3959   0.0000   0.0000   0.0000   0.3867
   2.610   1.0055   0.01273   0.00690  -0.1527  0.3351  0.0288  -2.3968   0.0000   0.0000   0.0000   0.3865
   2.620   1.0064   0.01274   0.00691  -0.1527  0.3351  0.0289  -2.3978   0.0000   0.0000   0.0000   0.3863
   2.630   1.0073   0.01275   0.00691  -0.1527  0.3351  0.0290  -2.3987   0.0000   0.0000   0.0000   0.3861
   2.640   1.0081   0.01275   0.00692  -0.1527  0.3351  0.0291  -2.3996   0.0000   0.0000   0.0000   0.3860
   2.650   1.0090   0.01276   0.00693  -0.1526  0.3350  0.0292  -2.4005   0.0000   0.0000   0.0000   0.3858
   2.660   1.0099   0.01276   0.00694  -0.1526  0.3350  0.0293  -2.4014   0.0000   0.0000   0.0000   0.3856
   2.670   1.0107   0.01277   0.00694  -0.1526  0.3350  0.0295  -2.4024   0.0000   0.0000   0.0000   0.3854
   2.680   1.0116   0.01278   0.00695  -0.1525  0.3350  0.0297  -2.4033   0.0000   0.0000   0.0000   0.3852
   2.690   1.0125   0.01278   0.00696  -0.1525  0.3350  0.0299  -2.4042   0.0000   0.0000   0.0000   0.3850
   2.700   1.0133   0.01279   0.00696  -0.1525  0.3349  0.0303  -2.4051   0.0000   0.0000   0.0000   0.3848
   2.710   1.0142   0.01280   0.00697  -0.1524  0.3349  0.0307  -2.4061   0.0000   0.0000   0.0000   0.3847
   2.720   1.0151   0.01280   0.00698  -0.1524  0.3349  0.0312  -2.4070   0.0000   0.0000   0.0000   0.3845
   2.730   1.0159   0.01281   0.00699  -0.1524  0.3349  0.0319  -2.4079   0.0000   0.0000   0.0000   0.3843
   2.740   1.0167   0.01281   0.00699  -0.1523  0.3348  0.0328  -2.4089   0.0000   0.0000   0.0000   0.3841
   2.750   1.0176   0.01282   0.00700  -0.1523  0.3348  0.0340  -2.4098   0.0000   0.0000   0.0000   0.3839
   2.760   1.0184   0.01282   0.00700  -0.1523  0.3348  0.0356  -2.4107   0.0000   0.0000   0.0000   0.3837
   2.770   1.0192   0.01282   0.00701  -0.1522  0.3348  0.0378  -2.4115   0.0000   0.0000   0.0000   0.3835
   2.780   1.0199   0.01282   0.00701  -0.1522  0.3347  0.0408  -2.4124   0.0000   0.0000   0.0000   0.3833
   2.790   1.0206   0.01282   0.00702  -0.1521  0.3347  0.0448  -2.4131   0.0000   0.0000   0.0000   0.3831
   2.800   1.0212   0.01282   0.00702  -0.1520  0.3347  0.0501  -2.4139   0.0000   0.0000   0.0000   0.3830
   2.810   1.0217   0.01280   0.00702  -0.1519  0.3347  0.0570  -2.4145   0.0000   0.0000   0.0000   0.3828
   2.820   1.0223   0.01279   0.00703  -0.1518  0.3346  0.0633  -2.4152   0.0000   0.0000   0.0000   0.3826
   2.830   1.0231   0.01280   0.00704  -0.1518  0.3346  0.0635  -2.4161   0.0000   0.0000   0.0000   0.3824
   2.840   1.0240   0.01281   0.00705  -0.1518  0.3346  0.0638  -2.4170   0.0000   0.0000   0.0000   0.3822
   2.850   1.0248   0.01281   0.00705  -0.1517  0.3346  0.0644  -2.4180   0.0000   0.0000   0.0000   0.3820
   2.860   1.0257   0.01282   0.00706  -0.1517  0.3345  0.0649  -2.4189   0.0000   0.0000   0.0000   0.3818
   2.870   1.0265   0.01282   0.00707  -0.1517  0.3345  0.0654  -2.4198   0.0000   0.0000   0.0000   0.3816
   2.880   1.0274   0.01283   0.00708  -0.1516  0.3345  0.0659  -2.4207   0.0000   0.0000   0.0000   0.3815
   2.890   1.0282   0.01284   0.00708  -0.1516  0.3345  0.0663  -2.4217   0.0000   0.0000   0.0000   0.3813
   2.900   1.0291   0.01284   0.00709  -0.1516  0.3344  0.0667  -2.4226   0.0000   0.0000   0.0000   0.3811
   2.920   1.0308   0.01286   0.00711  -0.1515  0.3344  0.0671  -2.4245   0.0000   0.0000   0.0000   0.3807
   2.930   1.0316   0.01287   0.00712  -0.1515  0.3344  0.0673  -2.4254   0.0000   0.0000   0.0000   0.3806
   2.940   1.0324   0.01287   0.00713  -0.1514  0.3343  0.0675  -2.4263   0.0000   0.0000   0.0000   0.3804
   2.950   1.0333   0.01288   0.00713  -0.1514  0.3343  0.0677  -2.4272   0.0000   0.0000   0.0000   0.3802
   2.960   1.0341   0.01289   0.00714  -0.1514  0.3343  0.0678  -2.4281   0.0000   0.0000   0.0000   0.3800
   2.970   1.0349   0.01290   0.00715  -0.1513  0.3343  0.0680  -2.4290   0.0000   0.0000   0.0000   0.3798
   2.980   1.0357   0.01291   0.00716  -0.1513  0.3342  0.0681  -2.4298   0.0000   0.0000   0.0000   0.3797
   2.990   1.0364   0.01292   0.00717  -0.1512  0.3342  0.0683  -2.4307   0.0000   0.0000   0.0000   0.3795
   3.000   1.0372   0.01293   0.00718  -0.1512  0.3342  0.0684  -2.4316   0.0000   0.0000   0.0000   0.3793
   3.010   1.0380   0.01294   0.00719  -0.1512  0.3342  0.0685  -2.4324   0.0000   0.0000   0.0000   0.3791
   3.020   1.0388   0.01295   0.00720  -0.1511  0.3342  0.0686  -2.4333   0.0000   0.0000   0.0000   0.3789
   3.030   1.0395   0.01295   0.00721  -0.1511  0.3341  0.0687  -2.4341   0.0000   0.0000   0.0000   0.3788
   3.040   1.0403   0.01296   0.00722  -0.1510  0.3341  0.0688  -2.4350   0.0000   0.0000   0.0000   0.3786
   3.050   1.0411   0.01297   0.00723  -0.1510  0.3341  0.0689  -2.4358   0.0000   0.0000   0.0000   0.3784
   3.060   1.0418   0.01298   0.00724  -0.1509  0.3341  0.0690  -2.4367   0.0000   0.0000   0.0000   0.3782
   3.070   1.0426   0.01299   0.00725  -0.1509  0.3341  0.0691  -2.4375   0.0000   0.0000   0.0000   0.3781
   3.080   1.0433   0.01300   0.00726  -0.1508  0.3341  0.0692  -2.4384   0.0000   0.0000   0.0000   0.3779
   3.090   1.0441   0.01301   0.00727  -0.1508  0.3341  0.0693  -2.4392   0.0000   0.0000   0.0000   0.3777
   3.100   1.0448   0.01302   0.00729  -0.1508  0.3340  0.0694  -2.4400   0.0000   0.0000   0.0000   0.3775
   3.110   1.0456   0.01303   0.00730  -0.1507  0.3340  0.0695  -2.4409   0.0000   0.0000   0.0000   0.3774
   3.120   1.0463   0.01304   0.00731  -0.1507  0.3340  0.0696  -2.4417   0.0000   0.0000   0.0000   0.3772
   3.130   1.0471   0.01305   0.00732  -0.1506  0.3340  0.0697  -2.4426   0.0000   0.0000   0.0000   0.3770
   3.140   1.0479   0.01306   0.00733  -0.1506  0.3340  0.0698  -2.4434   0.0000   0.0000   0.0000   0.3768
   3.150   1.0486   0.01307   0.00734  -0.1505  0.3340  0.0698  -2.4443   0.0000   0.0000   0.0000   0.3767
   3.160   1.0494   0.01308   0.00735  -0.1505  0.3340  0.0699  -2.4451   0.0000   0.0000   0.0000   0.3765
   3.170   1.0502   0.01309   0.00736  -0.1504  0.3339  0.0700  -2.4460   0.0000   0.0000   0.0000   0.3763
   3.180   1.0510   0.01310   0.00737  -0.1504  0.3339  0.0700  -2.4469   0.0000   0.0000   0.0000   0.3761
   3.190   1.0518   0.01311   0.00738  -0.1504  0.3339  0.0700  -2.4478   0.0000   0.0000   0.0000   0.3760
   3.200   1.0526   0.01312   0.00739  -0.1503  0.3339  0.0700  -2.4486   0.0000   0.0000   0.0000   0.3758
   3.210   1.0534   0.01313   0.00740  -0.1503  0.3339  0.0701  -2.4495   0.0000   0.0000   0.0000   0.3756
   3.220   1.0542   0.01314   0.00741  -0.1503  0.3339  0.0701  -2.4504   0.0000   0.0000   0.0000   0.3754
   3.230   1.0550   0.01315   0.00742  -0.1502  0.3339  0.0701  -2.4513   0.0000   0.0000   0.0000   0.3753
   3.240   1.0558   0.01316   0.00743  -0.1502  0.3338  0.0701  -2.4522   0.0000   0.0000   0.0000   0.3751
   3.250   1.0566   0.01317   0.00744  -0.1501  0.3338  0.0701  -2.4531   0.0000   0.0000   0.0000   0.3749
   3.260   1.0575   0.01318   0.00745  -0.1501  0.3338  0.0702  -2.4540   0.0000   0.0000   0.0000   0.3748
   3.270   1.0583   0.01319   0.00746  -0.1501  0.3338  0.0702  -2.4549   0.0000   0.0000   0.0000   0.3746
   3.280   1.0591   0.01320   0.00747  -0.1500  0.3338  0.0702  -2.4558   0.0000   0.0000   0.0000   0.3744
   3.290   1.0599   0.01321   0.00748  -0.1500  0.3338  0.0702  -2.4567   0.0000   0.0000   0.0000   0.3742
   3.300   1.0608   0.01321   0.00749  -0.1500  0.3337  0.0702  -2.4576   0.0000   0.0000   0.0000   0.3741
   3.310   1.0616   0.01322   0.00750  -0.1499  0.3337  0.0702  -2.4585   0.0000   0.0000   0.0000   0.3739
   3.320   1.0624   0.01323   0.00751  -0.1499  0.3337  0.0703  -2.4594   0.0000   0.0000   0.0000   0.3737
   3.330   1.0633   0.01324   0.00752  -0.1499  0.3337  0.0703  -2.4603   0.0000   0.0000   0.0000   0.3736
   3.340   1.0641   0.01325   0.00753  -0.1498  0.3337  0.0703  -2.4612   0.0000   0.0000   0.0000   0.3734
   3.350   1.0649   0.01326   0.00753  -0.1498  0.3337  0.0703  -2.4621   0.0000   0.0000   0.0000   0.3732
   3.360   1.0658   0.01327   0.00754  -0.1498  0.3336  0.0703  -2.4631   0.0000   0.0000   0.0000   0.3731
   3.370   1.0666   0.01328   0.00755  -0.1497  0.3336  0.0703  -2.4640   0.0000   0.0000   0.0000   0.3729
   3.380   1.0675   0.01328   0.00756  -0.1497  0.3336  0.0704  -2.4649   0.0000   0.0000   0.0000   0.3727
   3.390   1.0683   0.01329   0.00757  -0.1497  0.3336  0.0704  -2.4658   0.0000   0.0000   0.0000   0.3726
   3.400   1.0692   0.01330   0.00758  -0.1497  0.3336  0.0704  -2.4667   0.0000   0.0000   0.0000   0.3724
   3.410   1.0700   0.01331   0.00759  -0.1496  0.3336  0.0704  -2.4677   0.0000   0.0000   0.0000   0.3722
   3.420   1.0709   0.01332   0.00760  -0.1496  0.3335  0.0704  -2.4686   0.0000   0.0000   0.0000   0.3721
   3.430   1.0717   0.01333   0.00761  -0.1496  0.3335  0.0704  -2.4695   0.0000   0.0000   0.0000   0.3719
   3.440   1.0726   0.01334   0.00762  -0.1495  0.3335  0.0705  -2.4704   0.0000   0.0000   0.0000   0.3717
   3.450   1.0734   0.01334   0.00763  -0.1495  0.3335  0.0705  -2.4714   0.0000   0.0000   0.0000   0.3716
   3.460   1.0743   0.01335   0.00763  -0.1495  0.3335  0.0705  -2.4723   0.0000   0.0000   0.0000   0.3714
   3.470   1.0751   0.01336   0.00764  -0.1495  0.3335  0.0705  -2.4732   0.0000   0.0000   0.0000   0.3712
   3.480   1.0760   0.01337   0.00765  -0.1494  0.3334  0.0705  -2.4742   0.0000   0.0000   0.0000   0.3711
   3.490   1.0768   0.01338   0.00766  -0.1494  0.3334  0.0706  -2.4751   0.0000   0.0000   0.0000   0.3709
   3.500   1.0777   0.01339   0.00767  -0.1494  0.3334  0.0706  -2.4760   0.0000   0.0000   0.0000   0.3707
   3.510   1.0786   0.01339   0.00768  -0.1493  0.3334  0.0706  -2.4770   0.0000   0.0000   0.0000   0.3706
   3.520   1.0794   0.01340   0.00769  -0.1493  0.3334  0.0706  -2.4779   0.0000   0.0000   0.0000   0.3704
   3.530   1.0803   0.01341   0.00770  -0.1493  0.3334  0.0706  -2.4788   0.0000   0.0000   0.0000   0.3703
   3.540   1.0811   0.01342   0.00771  -0.1493  0.3333  0.0706  -2.4798   0.0000   0.0000   0.0000   0.3701
   3.550   1.0820   0.01343   0.00771  -0.1492  0.3333  0.0707  -2.4807   0.0000   0.0000   0.0000   0.3699
   3.560   1.0829   0.01344   0.00772  -0.1492  0.3333  0.0707  -2.4816   0.0000   0.0000   0.0000   0.3698
   3.570   1.0837   0.01344   0.00773  -0.1492  0.3333  0.0707  -2.4826   0.0000   0.0000   0.0000   0.3696
   3.580   1.0846   0.01345   0.00774  -0.1491  0.3333  0.0707  -2.4835   0.0000   0.0000   0.0000   0.3695
   3.590   1.0855   0.01346   0.00775  -0.1491  0.3332  0.0707  -2.4844   0.0000   0.0000   0.0000   0.3693
   3.600   1.0863   0.01347   0.00776  -0.1491  0.3332  0.0708  -2.4854   0.0000   0.0000   0.0000   0.3691
   3.610   1.0872   0.01348   0.00777  -0.1491  0.3332  0.0708  -2.4863   0.0000   0.0000   0.0000   0.3690
   3.620   1.0881   0.01349   0.00778  -0.1490  0.3332  0.0708  -2.4872   0.0000   0.0000   0.0000   0.3688
   3.630   1.0889   0.01349   0.00778  -0.1490  0.3332  0.0708  -2.4882   0.0000   0.0000   0.0000   0.3686
   3.640   1.0898   0.01350   0.00779  -0.1490  0.3332  0.0708  -2.4891   0.0000   0.0000   0.0000   0.3685
   3.650   1.0907   0.01351   0.00780  -0.1490  0.3331  0.0708  -2.4901   0.0000   0.0000   0.0000   0.3683
   3.660   1.0915   0.01352   0.00781  -0.1489  0.3331  0.0709  -2.4910   0.0000   0.0000   0.0000   0.3682
   3.670   1.0924   0.01353   0.00782  -0.1489  0.3331  0.0709  -2.4919   0.0000   0.0000   0.0000   0.3680
   3.680   1.0933   0.01353   0.00783  -0.1489  0.3331  0.0709  -2.4929   0.0000   0.0000   0.0000   0.3679
   3.690   1.0941   0.01354   0.00784  -0.1488  0.3331  0.0709  -2.4938   0.0000   0.0000   0.0000   0.3677
   3.700   1.0950   0.01355   0.00785  -0.1488  0.3330  0.0709  -2.4948   0.0000   0.0000   0.0000   0.3675
   3.710   1.0959   0.01356   0.00785  -0.1488  0.3330  0.0710  -2.4957   0.0000   0.0000   0.0000   0.3674
   3.720   1.0967   0.01357   0.00786  -0.1488  0.3330  0.0710  -2.4966   0.0000   0.0000   0.0000   0.3672
   3.730   1.0976   0.01358   0.00787  -0.1487  0.3330  0.0710  -2.4976   0.0000   0.0000   0.0000   0.3671
   3.740   1.0985   0.01358   0.00788  -0.1487  0.3330  0.0710  -2.4985   0.0000   0.0000   0.0000   0.3669
   3.750   1.0993   0.01359   0.00789  -0.1487  0.3329  0.0710  -2.4995   0.0000   0.0000   0.0000   0.3667
   3.760   1.1002   0.01360   0.00790  -0.1487  0.3329  0.0711  -2.5004   0.0000   0.0000   0.0000   0.3666
   3.770   1.1011   0.01361   0.00791  -0.1486  0.3329  0.0711  -2.5013   0.0000   0.0000   0.0000   0.3664
   3.780   1.1020   0.01362   0.00792  -0.1486  0.3329  0.0711  -2.5023   0.0000   0.0000   0.0000   0.3663
   3.790   1.1028   0.01363   0.00792  -0.1486  0.3329  0.0711  -2.5032   0.0000   0.0000   0.0000   0.3661
   3.800   1.1037   0.01363   0.00793  -0.1486  0.3329  0.0711  -2.5042   0.0000   0.0000   0.0000   0.3660
   3.810   1.1046   0.01364   0.00794  -0.1485  0.3328  0.0712  -2.5051   0.0000   0.0000   0.0000   0.3658
   3.820   1.1054   0.01365   0.00795  -0.1485  0.3328  0.0712  -2.5060   0.0000   0.0000   0.0000   0.3657
   3.830   1.1063   0.01366   0.00796  -0.1485  0.3328  0.0712  -2.5070   0.0000   0.0000   0.0000   0.3655
   3.840   1.1072   0.01367   0.00797  -0.1485  0.3328  0.0712  -2.5079   0.0000   0.0000   0.0000   0.3653
   3.850   1.1080   0.01368   0.00798  -0.1484  0.3328  0.0712  -2.5089   0.0000   0.0000   0.0000   0.3652
   3.860   1.1089   0.01368   0.00799  -0.1484  0.3327  0.0713  -2.5098   0.0000   0.0000   0.0000   0.3650
   3.870   1.1098   0.01369   0.00800  -0.1484  0.3327  0.0713  -2.5107   0.0000   0.0000   0.0000   0.3649
   3.880   1.1107   0.01370   0.00800  -0.1484  0.3327  0.0713  -2.5117   0.0000   0.0000   0.0000   0.3647
   3.890   1.1115   0.01371   0.00801  -0.1483  0.3327  0.0713  -2.5126   0.0000   0.0000   0.0000   0.3646
   3.900   1.1124   0.01372   0.00802  -0.1483  0.3327  0.0714  -2.5135   0.0000   0.0000   0.0000   0.3644
   3.910   1.1133   0.01373   0.00803  -0.1483  0.3326  0.0714  -2.5145   0.0000   0.0000   0.0000   0.3643
   3.920   1.1141   0.01373   0.00804  -0.1483  0.3326  0.0714  -2.5154   0.0000   0.0000   0.0000   0.3641
   3.930   1.1150   0.01374   0.00805  -0.1482  0.3326  0.0715  -2.5164   0.0000   0.0000   0.0000   0.3640
   3.940   1.1159   0.01375   0.00806  -0.1482  0.3326  0.0715  -2.5173   0.0000   0.0000   0.0000   0.3638
   3.950   1.1168   0.01376   0.00807  -0.1482  0.3326  0.0715  -2.5182   0.0000   0.0000   0.0000   0.3637
   3.960   1.1176   0.01377   0.00808  -0.1482  0.3326  0.0716  -2.5192   0.0000   0.0000   0.0000   0.3635
   3.970   1.1185   0.01378   0.00808  -0.1481  0.3325  0.0716  -2.5201   0.0000   0.0000   0.0000   0.3634
   3.980   1.1194   0.01378   0.00809  -0.1481  0.3325  0.0716  -2.5211   0.0000   0.0000   0.0000   0.3632
   3.990   1.1202   0.01379   0.00810  -0.1481  0.3325  0.0717  -2.5220   0.0000   0.0000   0.0000   0.3631
   4.000   1.1211   0.01380   0.00811  -0.1481  0.3325  0.0717  -2.5229   0.0000   0.0000   0.0000   0.3629
   4.010   1.1220   0.01381   0.00812  -0.1480  0.3325  0.0717  -2.5239   0.0000   0.0000   0.0000   0.3628
   4.020   1.1228   0.01382   0.00813  -0.1480  0.3325  0.0718  -2.5248   0.0000   0.0000   0.0000   0.3626
   4.030   1.1237   0.01383   0.00814  -0.1480  0.3324  0.0718  -2.5258   0.0000   0.0000   0.0000   0.3625
   4.040   1.1246   0.01383   0.00815  -0.1480  0.3324  0.0718  -2.5267   0.0000   0.0000   0.0000   0.3623
   4.050   1.1255   0.01384   0.00816  -0.1479  0.3324  0.0719  -2.5276   0.0000   0.0000   0.0000   0.3622
   4.060   1.1263   0.01385   0.00817  -0.1479  0.3324  0.0719  -2.5286   0.0000   0.0000   0.0000   0.3620
   4.070   1.1272   0.01386   0.00818  -0.1479  0.3324  0.0719  -2.5295   0.0000   0.0000   0.0000   0.3619
   4.080   1.1280   0.01387   0.00819  -0.1478  0.3324  0.0720  -2.5304   0.0000   0.0000   0.0000   0.3617
   4.090   1.1289   0.01388   0.00819  -0.1478  0.3323  0.0720  -2.5313   0.0000   0.0000   0.0000   0.3616
   4.100   1.1297   0.01389   0.00821  -0.1478  0.3323  0.0721  -2.5322   0.0000   0.0000   0.0000   0.3614
   4.110   1.1305   0.01390   0.00822  -0.1478  0.3323  0.0721  -2.5331   0.0000   0.0000   0.0000   0.3613
   4.120   1.1314   0.01391   0.00823  -0.1477  0.3323  0.0722  -2.5340   0.0000   0.0000   0.0000   0.3611
   4.130   1.1322   0.01392   0.00824  -0.1477  0.3323  0.0722  -2.5349   0.0000   0.0000   0.0000   0.3610
   4.140   1.1330   0.01393   0.00825  -0.1477  0.3323  0.0723  -2.5357   0.0000   0.0000   0.0000   0.3608
   4.150   1.1337   0.01394   0.00826  -0.1476  0.3323  0.0724  -2.5366   0.0000   0.0000   0.0000   0.3607
   4.160   1.1345   0.01395   0.00827  -0.1476  0.3322  0.0724  -2.5374   0.0000   0.0000   0.0000   0.3605
   4.170   1.1353   0.01396   0.00828  -0.1475  0.3322  0.0725  -2.5383   0.0000   0.0000   0.0000   0.3604
   4.180   1.1360   0.01397   0.00830  -0.1475  0.3322  0.0725  -2.5391   0.0000   0.0000   0.0000   0.3602
   4.190   1.1368   0.01399   0.00831  -0.1474  0.3322  0.0726  -2.5399   0.0000   0.0000   0.0000   0.3601
   4.200   1.1375   0.01400   0.00832  -0.1474  0.3322  0.0726  -2.5407   0.0000   0.0000   0.0000   0.3599
   4.210   1.1382   0.01401   0.00834  -0.1474  0.3322  0.0727  -2.5416   0.0000   0.0000   0.0000   0.3598
   4.220   1.1390   0.01402   0.00835  -0.1473  0.3322  0.0727  -2.5424   0.0000   0.0000   0.0000   0.3596
   4.230   1.1397   0.01404   0.00836  -0.1473  0.3321  0.0728  -2.5432   0.0000   0.0000   0.0000   0.3595
   4.240   1.1405   0.01405   0.00838  -0.1472  0.3321  0.0728  -2.5440   0.0000   0.0000   0.0000   0.3593
   4.250   1.1412   0.01406   0.00839  -0.1472  0.3321  0.0729  -2.5448   0.0000   0.0000   0.0000   0.3592
   4.260   1.1419   0.01407   0.00840  -0.1471  0.3321  0.0729  -2.5456   0.0000   0.0000   0.0000   0.3590
   4.270   1.1426   0.01409   0.00842  -0.1471  0.3321  0.0730  -2.5464   0.0000   0.0000   0.0000   0.3589
   4.280   1.1434   0.01410   0.00843  -0.1470  0.3321  0.0730  -2.5472   0.0000   0.0000   0.0000   0.3587
   4.290   1.1441   0.01411   0.00844  -0.1470  0.3321  0.0731  -2.5480   0.0000   0.0000   0.0000   0.3586
   4.300   1.1449   0.01412   0.00845  -0.1470  0.3321  0.0731  -2.5488   0.0000   0.0000   0.0000   0.3584
   4.310   1.1456   0.01414   0.00847  -0.1469  0.3321  0.0732  -2.5496   0.0000   0.0000   0.0000   0.3583
   4.320   1.1464   0.01415   0.00848  -0.1469  0.3321  0.0732  -2.5505   0.0000   0.0000   0.0000   0.3581
   4.330   1.1472   0.01416   0.00849  -0.1468  0.3321  0.0732  -2.5513   0.0000   0.0000   0.0000   0.3580
   4.340   1.1479   0.01417   0.00850  -0.1468  0.3321  0.0733  -2.5521   0.0000   0.0000   0.0000   0.3578
   4.350   1.1487   0.01418   0.00852  -0.1468  0.3320  0.0733  -2.5530   0.0000   0.0000   0.0000   0.3577
   4.360   1.1495   0.01419   0.00853  -0.1467  0.3320  0.0734  -2.5538   0.0000   0.0000   0.0000   0.3575
   4.370   1.1503   0.01420   0.00854  -0.1467  0.3320  0.0734  -2.5547   0.0000   0.0000   0.0000   0.3574
   4.380   1.1511   0.01421   0.00855  -0.1467  0.3320  0.0735  -2.5555   0.0000   0.0000   0.0000   0.3573
   4.390   1.1518   0.01423   0.00856  -0.1466  0.3320  0.0735  -2.5564   0.0000   0.0000   0.0000   0.3571
   4.400   1.1526   0.01424   0.00858  -0.1466  0.3320  0.0736  -2.5573   0.0000   0.0000   0.0000   0.3570
   4.410   1.1534   0.01425   0.00859  -0.1466  0.3320  0.0736  -2.5581   0.0000   0.0000   0.0000   0.3568
   4.420   1.1543   0.01426   0.00860  -0.1465  0.3320  0.0736  -2.5590   0.0000   0.0000   0.0000   0.3567
   4.430   1.1551   0.01427   0.00861  -0.1465  0.3320  0.0737  -2.5599   0.0000   0.0000   0.0000   0.3565
   4.440   1.1559   0.01428   0.00862  -0.1465  0.3320  0.0737  -2.5608   0.0000   0.0000   0.0000   0.3564
   4.450   1.1567   0.01429   0.00863  -0.1464  0.3320  0.0738  -2.5616   0.0000   0.0000   0.0000   0.3563
   4.460   1.1575   0.01430   0.00864  -0.1464  0.3320  0.0738  -2.5625   0.0000   0.0000   0.0000   0.3561
   4.470   1.1583   0.01431   0.00865  -0.1464  0.3320  0.0739  -2.5634   0.0000   0.0000   0.0000   0.3560
   4.480   1.1591   0.01432   0.00867  -0.1463  0.3320  0.0739  -2.5643   0.0000   0.0000   0.0000   0.3558
   4.490   1.1600   0.01433   0.00868  -0.1463  0.3320  0.0740  -2.5652   0.0000   0.0000   0.0000   0.3557
   4.500   1.1608   0.01434   0.00869  -0.1463  0.3319  0.0740  -2.5661   0.0000   0.0000   0.0000   0.3555
   4.510   1.1616   0.01435   0.00870  -0.1462  0.3319  0.0741  -2.5669   0.0000   0.0000   0.0000   0.3554
   4.520   1.1624   0.01436   0.00871  -0.1462  0.3319  0.0741  -2.5678   0.0000   0.0000   0.0000   0.3553
   4.530   1.1633   0.01437   0.00872  -0.1462  0.3319  0.0742  -2.5687   0.0000   0.0000   0.0000   0.3551
   4.540   1.1641   0.01438   0.00873  -0.1462  0.3319  0.0742  -2.5696   0.0000   0.0000   0.0000   0.3550
   4.550   1.1649   0.01439   0.00874  -0.1461  0.3319  0.0743  -2.5705   0.0000   0.0000   0.0000   0.3548
   4.560   1.1658   0.01440   0.00875  -0.1461  0.3319  0.0743  -2.5714   0.0000   0.0000   0.0000   0.3547
   4.570   1.1666   0.01441   0.00876  -0.1461  0.3319  0.0744  -2.5723   0.0000   0.0000   0.0000   0.3546
   4.580   1.1675   0.01442   0.00877  -0.1460  0.3319  0.0744  -2.5732   0.0000   0.0000   0.0000   0.3544
   4.590   1.1683   0.01443   0.00878  -0.1460  0.3319  0.0745  -2.5741   0.0000   0.0000   0.0000   0.3543
   4.600   1.1692   0.01444   0.00879  -0.1460  0.3319  0.0745  -2.5750   0.0000   0.0000   0.0000   0.3542
   4.610   1.1700   0.01445   0.00880  -0.1460  0.3319  0.0746  -2.5759   0.0000   0.0000   0.0000   0.3540
   4.620   1.1708   0.01446   0.00881  -0.1459  0.3319  0.0746  -2.5769   0.0000   0.0000   0.0000   0.3539
   4.630   1.1717   0.01447   0.00882  -0.1459  0.3319  0.0747  -2.5778   0.0000   0.0000   0.0000   0.3537
   4.640   1.1725   0.01448   0.00883  -0.1459  0.3319  0.0747  -2.5787   0.0000   0.0000   0.0000   0.3536
   4.650   1.1734   0.01449   0.00884  -0.1459  0.3318  0.0748  -2.5796   0.0000   0.0000   0.0000   0.3535
   4.660   1.1742   0.01450   0.00885  -0.1458  0.3318  0.0748  -2.5805   0.0000   0.0000   0.0000   0.3533
   4.670   1.1751   0.01451   0.00886  -0.1458  0.3318  0.0749  -2.5814   0.0000   0.0000   0.0000   0.3532
   4.680   1.1760   0.01452   0.00888  -0.1458  0.3318  0.0749  -2.5823   0.0000   0.0000   0.0000   0.3531
   4.690   1.1768   0.01453   0.00889  -0.1457  0.3318  0.0750  -2.5832   0.0000   0.0000   0.0000   0.3529
   4.700   1.1777   0.01454   0.00890  -0.1457  0.3318  0.0750  -2.5841   0.0000   0.0000   0.0000   0.3528
   4.710   1.1785   0.01454   0.00891  -0.1457  0.3318  0.0750  -2.5851   0.0000   0.0000   0.0000   0.3526
   4.720   1.1794   0.01455   0.00892  -0.1457  0.3318  0.0750  -2.5860   0.0000   0.0000   0.0000   0.3525
   4.730   1.1802   0.01456   0.00893  -0.1456  0.3318  0.0751  -2.5869   0.0000   0.0000   0.0000   0.3524
   4.740   1.1811   0.01457   0.00894  -0.1456  0.3318  0.0751  -2.5878   0.0000   0.0000   0.0000   0.3522
   4.750   1.1820   0.01458   0.00895  -0.1456  0.3318  0.0751  -2.5887   0.0000   0.0000   0.0000   0.3521
   4.760   1.1828   0.01459   0.00896  -0.1456  0.3318  0.0751  -2.5896   0.0000   0.0000   0.0000   0.3520
   4.770   1.1837   0.01460   0.00897  -0.1456  0.3318  0.0752  -2.5906   0.0000   0.0000   0.0000   0.3518
   4.780   1.1845   0.01461   0.00898  -0.1455  0.3318  0.0752  -2.5915   0.0000   0.0000   0.0000   0.3517
   4.790   1.1854   0.01462   0.00899  -0.1455  0.3317  0.0752  -2.5924   0.0000   0.0000   0.0000   0.3516
   4.800   1.1863   0.01463   0.00900  -0.1455  0.3317  0.0752  -2.5933   0.0000   0.0000   0.0000   0.3514
   4.810   1.1871   0.01464   0.00901  -0.1455  0.3317  0.0753  -2.5942   0.0000   0.0000   0.0000   0.3513
   4.820   1.1880   0.01465   0.00902  -0.1454  0.3317  0.0753  -2.5952   0.0000   0.0000   0.0000   0.3512
   4.830   1.1888   0.01466   0.00903  -0.1454  0.3317  0.0753  -2.5961   0.0000   0.0000   0.0000   0.3510
   4.840   1.1897   0.01467   0.00904  -0.1454  0.3317  0.0753  -2.5970   0.0000   0.0000   0.0000   0.3509
   4.850   1.1906   0.01468   0.00905  -0.1454  0.3317  0.0753  -2.5979   0.0000   0.0000   0.0000   0.3508
   4.860   1.1914   0.01469   0.00906  -0.1453  0.3317  0.0754  -2.5988   0.0000   0.0000   0.0000   0.3506
   4.870   1.1923   0.01470   0.00907  -0.1453  0.3317  0.0754  -2.5998   0.0000   0.0000   0.0000   0.3505
   4.880   1.1932   0.01471   0.00908  -0.1453  0.3317  0.0754  -2.6007   0.0000   0.0000   0.0000   0.3504
   4.890   1.1940   0.01472   0.00909  -0.1453  0.3317  0.0754  -2.6016   0.0000   0.0000   0.0000   0.3502
   4.900   1.1949   0.01472   0.00910  -0.1452  0.3317  0.0755  -2.6025   0.0000   0.0000   0.0000   0.3501
   4.910   1.1957   0.01473   0.00911  -0.1452  0.3317  0.0755  -2.6034   0.0000   0.0000   0.0000   0.3500
   4.920   1.1966   0.01474   0.00912  -0.1452  0.3317  0.0755  -2.6044   0.0000   0.0000   0.0000   0.3498
   4.930   1.1975   0.01475   0.00913  -0.1452  0.3316  0.0755  -2.6053   0.0000   0.0000   0.0000   0.3497
   4.940   1.1983   0.01476   0.00914  -0.1452  0.3316  0.0756  -2.6062   0.0000   0.0000   0.0000   0.3496
   4.950   1.1992   0.01477   0.00915  -0.1451  0.3316  0.0756  -2.6071   0.0000   0.0000   0.0000   0.3494
   4.960   1.2001   0.01478   0.00916  -0.1451  0.3316  0.0756  -2.6080   0.0000   0.0000   0.0000   0.3493
   4.970   1.2009   0.01479   0.00917  -0.1451  0.3316  0.0756  -2.6090   0.0000   0.0000   0.0000   0.3492
   4.980   1.2018   0.01480   0.00918  -0.1451  0.3316  0.0757  -2.6099   0.0000   0.0000   0.0000   0.3490
   4.990   1.2027   0.01481   0.00919  -0.1450  0.3316  0.0757  -2.6108   0.0000   0.0000   0.0000   0.3489
   5.000   1.2035   0.01482   0.00920  -0.1450  0.3316  0.0757  -2.6117   0.0000   0.0000   0.0000   0.3488
   5.010   1.2044   0.01483   0.00921  -0.1450  0.3316  0.0757  -2.6126   0.0000   0.0000   0.0000   0.3487
   5.020   1.2052   0.01484   0.00922  -0.1450  0.3316  0.0758  -2.6136   0.0000   0.0000   0.0000   0.3485
   5.030   1.2061   0.01485   0.00923  -0.1449  0.3316  0.0758  -2.6145   0.0000   0.0000   0.0000   0.3484
   5.040   1.2070   0.01486   0.00924  -0.1449  0.3316  0.0758  -2.6154   0.0000   0.0000   0.0000   0.3483
   5.050   1.2078   0.01487   0.00925  -0.1449  0.3316  0.0758  -2.6163   0.0000   0.0000   0.0000   0.3481
   5.060   1.2087   0.01488   0.00926  -0.1449  0.3315  0.0759  -2.6172   0.0000   0.0000   0.0000   0.3480
   5.070   1.2096   0.01489   0.00927  -0.1449  0.3315  0.0759  -2.6182   0.0000   0.0000   0.0000   0.3479
   5.080   1.2104   0.01490   0.00928  -0.1448  0.3315  0.0759  -2.6191   0.0000   0.0000   0.0000   0.3478
   5.090   1.2113   0.01491   0.00929  -0.1448  0.3315  0.0759  -2.6200   0.0000   0.0000   0.0000   0.3476
   5.100   1.2122   0.01492   0.00930  -0.1448  0.3315  0.0760  -2.6209   0.0000   0.0000   0.0000   0.3475
   5.110   1.2130   0.01493   0.00931  -0.1448  0.3315  0.0760  -2.6218   0.0000   0.0000   0.0000   0.3474
   5.120   1.2139   0.01493   0.00932  -0.1447  0.3315  0.0760  -2.6227   0.0000   0.0000   0.0000   0.3472
   5.130   1.2147   0.01494   0.00933  -0.1447  0.3315  0.0760  -2.6237   0.0000   0.0000   0.0000   0.3471
   5.140   1.2156   0.01495   0.00934  -0.1447  0.3315  0.0761  -2.6246   0.0000   0.0000   0.0000   0.3470
   5.150   1.2165   0.01496   0.00935  -0.1447  0.3315  0.0761  -2.6255   0.0000   0.0000   0.0000   0.3469
   5.160   1.2173   0.01497   0.00937  -0.1446  0.3315  0.0761  -2.6264   0.0000   0.0000   0.0000   0.3467
   5.170   1.2182   0.01498   0.00938  -0.1446  0.3315  0.0761  -2.6273   0.0000   0.0000   0.0000   0.3466
   5.180   1.2191   0.01499   0.00939  -0.1446  0.3315  0.0762  -2.6282   0.0000   0.0000   0.0000   0.3465
   5.190   1.2199   0.01500   0.00940  -0.1446  0.3314  0.0762  -2.6292   0.0000   0.0000   0.0000   0.3463
   5.200   1.2208   0.01501   0.00941  -0.1446  0.3314  0.0762  -2.6301   0.0000   0.0000   0.0000   0.3462
   5.210   1.2216   0.01502   0.00942  -0.1445  0.3314  0.0762  -2.6310   0.0000   0.0000   0.0000   0.3461
   5.220   1.2225   0.01503   0.00943  -0.1445  0.3314  0.0763  -2.6319   0.0000   0.0000   0.0000   0.3460
   5.230   1.2233   0.01504   0.00944  -0.1445  0.3314  0.0763  -2.6328   0.0000   0.0000   0.0000   0.3458
   5.240   1.2242   0.01505   0.00945  -0.1445  0.3314  0.0763  -2.6337   0.0000   0.0000   0.0000   0.3457
   5.250   1.2250   0.01506   0.00946  -0.1444  0.3314  0.0763  -2.6346   0.0000   0.0000   0.0000   0.3456
   5.260   1.2258   0.01507   0.00947  -0.1444  0.3314  0.0764  -2.6355   0.0000   0.0000   0.0000   0.3455
   5.270   1.2266   0.01509   0.00949  -0.1444  0.3314  0.0764  -2.6363   0.0000   0.0000   0.0000   0.3453
   5.280   1.2274   0.01510   0.00950  -0.1443  0.3314  0.0764  -2.6372   0.0000   0.0000   0.0000   0.3452
   5.290   1.2282   0.01511   0.00951  -0.1443  0.3314  0.0764  -2.6380   0.0000   0.0000   0.0000   0.3451
   5.300   1.2290   0.01512   0.00953  -0.1443  0.3314  0.0765  -2.6388   0.0000   0.0000   0.0000   0.3450
   5.310   1.2298   0.01514   0.00954  -0.1442  0.3314  0.0765  -2.6397   0.0000   0.0000   0.0000   0.3448
   5.320   1.2305   0.01515   0.00955  -0.1442  0.3313  0.0765  -2.6405   0.0000   0.0000   0.0000   0.3447
   5.330   1.2312   0.01516   0.00957  -0.1442  0.3313  0.0766  -2.6412   0.0000   0.0000   0.0000   0.3446
   5.340   1.2320   0.01518   0.00958  -0.1441  0.3313  0.0766  -2.6420   0.0000   0.0000   0.0000   0.3444
   5.350   1.2327   0.01519   0.00960  -0.1441  0.3313  0.0766  -2.6428   0.0000   0.0000   0.0000   0.3443
   5.360   1.2334   0.01521   0.00962  -0.1440  0.3313  0.0766  -2.6436   0.0000   0.0000   0.0000   0.3442
   5.370   1.2341   0.01522   0.00963  -0.1440  0.3313  0.0767  -2.6443   0.0000   0.0000   0.0000   0.3441
   5.380   1.2348   0.01524   0.00965  -0.1439  0.3313  0.0767  -2.6451   0.0000   0.0000   0.0000   0.3439
   5.390   1.2355   0.01525   0.00966  -0.1439  0.3313  0.0767  -2.6458   0.0000   0.0000   0.0000   0.3438
   5.400   1.2362   0.01527   0.00968  -0.1439  0.3313  0.0767  -2.6466   0.0000   0.0000   0.0000   0.3437
   5.410   1.2369   0.01529   0.00970  -0.1438  0.3313  0.0768  -2.6473   0.0000   0.0000   0.0000   0.3435
   5.420   1.2376   0.01530   0.00971  -0.1438  0.3313  0.0768  -2.6481   0.0000   0.0000   0.0000   0.3434
   5.430   1.2383   0.01532   0.00973  -0.1437  0.3313  0.0768  -2.6489   0.0000   0.0000   0.0000   0.3433
   5.440   1.2390   0.01533   0.00974  -0.1437  0.3312  0.0768  -2.6496   0.0000   0.0000   0.0000   0.3432
   5.450   1.2398   0.01535   0.00976  -0.1436  0.3312  0.0769  -2.6504   0.0000   0.0000   0.0000   0.3430
   5.460   1.2405   0.01536   0.00978  -0.1436  0.3312  0.0769  -2.6512   0.0000   0.0000   0.0000   0.3429
   5.470   1.2412   0.01537   0.00979  -0.1436  0.3312  0.0769  -2.6520   0.0000   0.0000   0.0000   0.3428
   5.480   1.2420   0.01539   0.00981  -0.1435  0.3312  0.0770  -2.6528   0.0000   0.0000   0.0000   0.3427
   5.490   1.2427   0.01540   0.00982  -0.1435  0.3312  0.0770  -2.6536   0.0000   0.0000   0.0000   0.3425
   5.500   1.2435   0.01542   0.00984  -0.1434  0.3312  0.0771  -2.6544   0.0000   0.0000   0.0000   0.3424
   5.510   1.2442   0.01543   0.00985  -0.1434  0.3312  0.0771  -2.6552   0.0000   0.0000   0.0000   0.3423
   5.520   1.2450   0.01544   0.00986  -0.1434  0.3312  0.0772  -2.6560   0.0000   0.0000   0.0000   0.3422
   5.530   1.2458   0.01546   0.00988  -0.1433  0.3312  0.0772  -2.6568   0.0000   0.0000   0.0000   0.3420
   5.540   1.2465   0.01547   0.00989  -0.1433  0.3312  0.0773  -2.6577   0.0000   0.0000   0.0000   0.3419
   5.550   1.2473   0.01548   0.00991  -0.1433  0.3312  0.0774  -2.6585   0.0000   0.0000   0.0000   0.3418
   5.560   1.2481   0.01550   0.00992  -0.1432  0.3311  0.0775  -2.6593   0.0000   0.0000   0.0000   0.3417
   5.570   1.2489   0.01551   0.00993  -0.1432  0.3311  0.0775  -2.6601   0.0000   0.0000   0.0000   0.3415
   5.580   1.2496   0.01552   0.00995  -0.1432  0.3311  0.0776  -2.6610   0.0000   0.0000   0.0000   0.3414
   5.590   1.2504   0.01554   0.00996  -0.1431  0.3311  0.0777  -2.6618   0.0000   0.0000   0.0000   0.3413
   5.600   1.2512   0.01555   0.00997  -0.1431  0.3311  0.0778  -2.6627   0.0000   0.0000   0.0000   0.3412
   5.610   1.2520   0.01556   0.00999  -0.1431  0.3311  0.0779  -2.6635   0.0000   0.0000   0.0000   0.3411
   5.620   1.2528   0.01557   0.01000  -0.1431  0.3311  0.0779  -2.6644   0.0000   0.0000   0.0000   0.3409
   5.630   1.2536   0.01559   0.01001  -0.1430  0.3311  0.0780  -2.6652   0.0000   0.0000   0.0000   0.3408
   5.640   1.2544   0.01560   0.01003  -0.1430  0.3311  0.0781  -2.6661   0.0000   0.0000   0.0000   0.3407
   5.650   1.2552   0.01561   0.01004  -0.1430  0.3311  0.0781  -2.6669   0.0000   0.0000   0.0000   0.3406
   5.660   1.2561   0.01562   0.01005  -0.1429  0.3311  0.0781  -2.6678   0.0000   0.0000   0.0000   0.3405
   5.670   1.2569   0.01563   0.01007  -0.1429  0.3310  0.0782  -2.6686   0.0000   0.0000   0.0000   0.3403
   5.680   1.2577   0.01565   0.01008  -0.1429  0.3310  0.0782  -2.6695   0.0000   0.0000   0.0000   0.3402
   5.690   1.2585   0.01566   0.01009  -0.1429  0.3310  0.0783  -2.6704   0.0000   0.0000   0.0000   0.3401
   5.700   1.2593   0.01567   0.01010  -0.1428  0.3310  0.0783  -2.6712   0.0000   0.0000   0.0000   0.3400
   5.710   1.2601   0.01568   0.01012  -0.1428  0.3310  0.0784  -2.6721   0.0000   0.0000   0.0000   0.3399
   5.720   1.2610   0.01569   0.01013  -0.1428  0.3310  0.0784  -2.6730   0.0000   0.0000   0.0000   0.3397
   5.730   1.2618   0.01571   0.01014  -0.1428  0.3310  0.0785  -2.6738   0.0000   0.0000   0.0000   0.3396
   5.740   1.2626   0.01572   0.01015  -0.1427  0.3310  0.0786  -2.6747   0.0000   0.0000   0.0000   0.3395
   5.750   1.2634   0.01573   0.01017  -0.1427  0.3310  0.0786  -2.6756   0.0000   0.0000   0.0000   0.3394
   5.760   1.2643   0.01574   0.01018  -0.1427  0.3310  0.0787  -2.6765   0.0000   0.0000   0.0000   0.3393
   5.770   1.2651   0.01575   0.01019  -0.1427  0.3310  0.0788  -2.6773   0.0000   0.0000   0.0000   0.3391
   5.780   1.2659   0.01576   0.01020  -0.1426  0.3309  0.0789  -2.6782   0.0000   0.0000   0.0000   0.3390
   5.790   1.2667   0.01577   0.01022  -0.1426  0.3309  0.0790  -2.6791   0.0000   0.0000   0.0000   0.3389
   5.800   1.2676   0.01579   0.01023  -0.1426  0.3309  0.0791  -2.6800   0.0000   0.0000   0.0000   0.3388
   5.810   1.2684   0.01580   0.01024  -0.1426  0.3309  0.0792  -2.6808   0.0000   0.0000   0.0000   0.3387
   5.830   1.2701   0.01582   0.01026  -0.1425  0.3309  0.0794  -2.6826   0.0000   0.0000   0.0000   0.3384
   5.840   1.2709   0.01583   0.01028  -0.1425  0.3309  0.0795  -2.6835   0.0000   0.0000   0.0000   0.3383
   5.850   1.2717   0.01584   0.01029  -0.1425  0.3309  0.0797  -2.6844   0.0000   0.0000   0.0000   0.3382
   5.860   1.2726   0.01585   0.01030  -0.1424  0.3309  0.0798  -2.6852   0.0000   0.0000   0.0000   0.3381
   5.870   1.2734   0.01587   0.01031  -0.1424  0.3309  0.0799  -2.6861   0.0000   0.0000   0.0000   0.3380
   5.880   1.2742   0.01588   0.01033  -0.1424  0.3309  0.0800  -2.6870   0.0000   0.0000   0.0000   0.3379
   5.890   1.2751   0.01589   0.01034  -0.1424  0.3308  0.0802  -2.6879   0.0000   0.0000   0.0000   0.3377
   5.900   1.2759   0.01590   0.01035  -0.1423  0.3308  0.0803  -2.6888   0.0000   0.0000   0.0000   0.3376
   5.910   1.2767   0.01591   0.01036  -0.1423  0.3308  0.0804  -2.6896   0.0000   0.0000   0.0000   0.3375
   5.920   1.2776   0.01592   0.01037  -0.1423  0.3308  0.0806  -2.6905   0.0000   0.0000   0.0000   0.3374
   5.930   1.2784   0.01593   0.01039  -0.1423  0.3308  0.0807  -2.6914   0.0000   0.0000   0.0000   0.3373
   5.940   1.2793   0.01594   0.01040  -0.1422  0.3308  0.0808  -2.6923   0.0000   0.0000   0.0000   0.3372
   5.950   1.2801   0.01595   0.01041  -0.1422  0.3308  0.0809  -2.6932   0.0000   0.0000   0.0000   0.3370
   5.960   1.2809   0.01597   0.01042  -0.1422  0.3308  0.0810  -2.6941   0.0000   0.0000   0.0000   0.3369
   5.970   1.2818   0.01598   0.01043  -0.1422  0.3308  0.0812  -2.6949   0.0000   0.0000   0.0000   0.3368
   5.980   1.2826   0.01599   0.01045  -0.1421  0.3308  0.0813  -2.6958   0.0000   0.0000   0.0000   0.3367
   5.990   1.2835   0.01600   0.01046  -0.1421  0.3308  0.0814  -2.6967   0.0000   0.0000   0.0000   0.3366
   6.000   1.2843   0.01601   0.01047  -0.1421  0.3307  0.0815  -2.6976   0.0000   0.0000   0.0000   0.3365
   6.010   1.2851   0.01602   0.01048  -0.1421  0.3307  0.0816  -2.6985   0.0000   0.0000   0.0000   0.3364
   6.020   1.2860   0.01603   0.01049  -0.1421  0.3307  0.0817  -2.6994   0.0000   0.0000   0.0000   0.3362
   6.030   1.2868   0.01604   0.01051  -0.1420  0.3307  0.0818  -2.7002   0.0000   0.0000   0.0000   0.3361
   6.040   1.2877   0.01606   0.01052  -0.1420  0.3307  0.0819  -2.7011   0.0000   0.0000   0.0000   0.3360
   6.050   1.2885   0.01607   0.01053  -0.1420  0.3307  0.0820  -2.7020   0.0000   0.0000   0.0000   0.3359
   6.060   1.2893   0.01608   0.01054  -0.1420  0.3307  0.0821  -2.7029   0.0000   0.0000   0.0000   0.3358
   6.070   1.2902   0.01609   0.01056  -0.1419  0.3307  0.0822  -2.7038   0.0000   0.0000   0.0000   0.3357
   6.080   1.2910   0.01610   0.01057  -0.1419  0.3307  0.0823  -2.7047   0.0000   0.0000   0.0000   0.3356
   6.090   1.2919   0.01611   0.01058  -0.1419  0.3307  0.0824  -2.7055   0.0000   0.0000   0.0000   0.3355
   6.100   1.2927   0.01612   0.01059  -0.1419  0.3306  0.0825  -2.7064   0.0000   0.0000   0.0000   0.3353
   6.110   1.2935   0.01613   0.01060  -0.1418  0.3306  0.0826  -2.7073   0.0000   0.0000   0.0000   0.3352
   6.120   1.2944   0.01614   0.01062  -0.1418  0.3306  0.0827  -2.7082   0.0000   0.0000   0.0000   0.3351
   6.130   1.2952   0.01616   0.01063  -0.1418  0.3306  0.0828  -2.7091   0.0000   0.0000   0.0000   0.3350
   6.140   1.2961   0.01617   0.01064  -0.1418  0.3306  0.0828  -2.7100   0.0000   0.0000   0.0000   0.3349
   6.150   1.2969   0.01618   0.01065  -0.1418  0.3306  0.0829  -2.7108   0.0000   0.0000   0.0000   0.3348
   6.160   1.2978   0.01619   0.01066  -0.1417  0.3306  0.0830  -2.7117   0.0000   0.0000   0.0000   0.3347
   6.170   1.2986   0.01620   0.01068  -0.1417  0.3306  0.0830  -2.7126   0.0000   0.0000   0.0000   0.3346
   6.180   1.2994   0.01621   0.01069  -0.1417  0.3306  0.0831  -2.7135   0.0000   0.0000   0.0000   0.3344
   6.190   1.3003   0.01622   0.01070  -0.1417  0.3306  0.0831  -2.7144   0.0000   0.0000   0.0000   0.3343
   6.200   1.3011   0.01624   0.01071  -0.1416  0.3305  0.0832  -2.7153   0.0000   0.0000   0.0000   0.3342
   6.210   1.3020   0.01625   0.01072  -0.1416  0.3305  0.0832  -2.7161   0.0000   0.0000   0.0000   0.3341
   6.220   1.3028   0.01626   0.01074  -0.1416  0.3305  0.0833  -2.7170   0.0000   0.0000   0.0000   0.3340
   6.230   1.3036   0.01627   0.01075  -0.1416  0.3305  0.0833  -2.7179   0.0000   0.0000   0.0000   0.3339
   6.240   1.3045   0.01628   0.01076  -0.1416  0.3305  0.0833  -2.7188   0.0000   0.0000   0.0000   0.3338
   6.250   1.3053   0.01629   0.01077  -0.1415  0.3305  0.0834  -2.7197   0.0000   0.0000   0.0000   0.3337
   6.260   1.3062   0.01630   0.01078  -0.1415  0.3305  0.0834  -2.7206   0.0000   0.0000   0.0000   0.3336
   6.270   1.3070   0.01632   0.01080  -0.1415  0.3305  0.0835  -2.7214   0.0000   0.0000   0.0000   0.3334
   6.280   1.3078   0.01633   0.01081  -0.1415  0.3305  0.0835  -2.7223   0.0000   0.0000   0.0000   0.3333
   6.290   1.3087   0.01634   0.01082  -0.1414  0.3305  0.0835  -2.7232   0.0000   0.0000   0.0000   0.3332
   6.300   1.3095   0.01635   0.01083  -0.1414  0.3304  0.0836  -2.7241   0.0000   0.0000   0.0000   0.3331
   6.310   1.3104   0.01636   0.01085  -0.1414  0.3304  0.0836  -2.7250   0.0000   0.0000   0.0000   0.3330
   6.320   1.3112   0.01637   0.01086  -0.1414  0.3304  0.0837  -2.7258   0.0000   0.0000   0.0000   0.3329
   6.330   1.3120   0.01639   0.01087  -0.1414  0.3304  0.0837  -2.7267   0.0000   0.0000   0.0000   0.3328
   6.340   1.3129   0.01640   0.01088  -0.1413  0.3304  0.0837  -2.7276   0.0000   0.0000   0.0000   0.3327
   6.350   1.3137   0.01641   0.01090  -0.1413  0.3304  0.0838  -2.7285   0.0000   0.0000   0.0000   0.3326
   6.360   1.3145   0.01642   0.01091  -0.1413  0.3304  0.0838  -2.7293   0.0000   0.0000   0.0000   0.3325
   6.370   1.3153   0.01643   0.01092  -0.1413  0.3303  0.0839  -2.7302   0.0000   0.0000   0.0000   0.3323
   6.380   1.3161   0.01645   0.01094  -0.1412  0.3303  0.0839  -2.7310   0.0000   0.0000   0.0000   0.3322
   6.390   1.3169   0.01646   0.01095  -0.1412  0.3303  0.0840  -2.7318   0.0000   0.0000   0.0000   0.3321
   6.400   1.3177   0.01648   0.01097  -0.1412  0.3303  0.0841  -2.7326   0.0000   0.0000   0.0000   0.3320
   6.410   1.3184   0.01649   0.01098  -0.1411  0.3303  0.0842  -2.7334   0.0000   0.0000   0.0000   0.3319
   6.420   1.3191   0.01651   0.01100  -0.1411  0.3303  0.0843  -2.7342   0.0000   0.0000   0.0000   0.3318
   6.430   1.3198   0.01652   0.01102  -0.1411  0.3302  0.0844  -2.7349   0.0000   0.0000   0.0000   0.3317
   6.440   1.3205   0.01654   0.01104  -0.1410  0.3302  0.0845  -2.7357   0.0000   0.0000   0.0000   0.3316
   6.450   1.3212   0.01656   0.01106  -0.1410  0.3302  0.0847  -2.7364   0.0000   0.0000   0.0000   0.3315
   6.460   1.3219   0.01658   0.01107  -0.1409  0.3302  0.0849  -2.7371   0.0000   0.0000   0.0000   0.3313
   6.470   1.3226   0.01660   0.01109  -0.1409  0.3302  0.0850  -2.7378   0.0000   0.0000   0.0000   0.3312
   6.480   1.3232   0.01661   0.01111  -0.1408  0.3302  0.0853  -2.7385   0.0000   0.0000   0.0000   0.3311
   6.490   1.3238   0.01663   0.01113  -0.1408  0.3301  0.0857  -2.7392   0.0000   0.0000   0.0000   0.3310
   6.500   1.3245   0.01665   0.01115  -0.1407  0.3301  0.0860  -2.7398   0.0000   0.0000   0.0000   0.3309
   6.510   1.3251   0.01667   0.01117  -0.1407  0.3301  0.0864  -2.7405   0.0000   0.0000   0.0000   0.3308
   6.520   1.3257   0.01669   0.01120  -0.1407  0.3301  0.0869  -2.7412   0.0000   0.0000   0.0000   0.3307
   6.530   1.3264   0.01671   0.01122  -0.1406  0.3301  0.0873  -2.7418   0.0000   0.0000   0.0000   0.3305
   6.540   1.3270   0.01673   0.01124  -0.1406  0.3300  0.0878  -2.7425   0.0000   0.0000   0.0000   0.3304
   6.550   1.3277   0.01674   0.01126  -0.1405  0.3300  0.0884  -2.7432   0.0000   0.0000   0.0000   0.3303
   6.560   1.3283   0.01676   0.01128  -0.1405  0.3300  0.0891  -2.7439   0.0000   0.0000   0.0000   0.3302
   6.570   1.3290   0.01678   0.01129  -0.1404  0.3300  0.0899  -2.7446   0.0000   0.0000   0.0000   0.3301
   6.580   1.3297   0.01680   0.01131  -0.1404  0.3299  0.0908  -2.7453   0.0000   0.0000   0.0000   0.3300
   6.590   1.3303   0.01681   0.01133  -0.1403  0.3299  0.0921  -2.7460   0.0000   0.0000   0.0000   0.3299
   6.600   1.3310   0.01683   0.01135  -0.1403  0.3299  0.0934  -2.7467   0.0000   0.0000   0.0000   0.3298
   6.610   1.3317   0.01684   0.01137  -0.1402  0.3299  0.0949  -2.7474   0.0000   0.0000   0.0000   0.3297
   6.620   1.3323   0.01686   0.01139  -0.1402  0.3298  0.0969  -2.7481   0.0000   0.0000   0.0000   0.3295
   6.630   1.3330   0.01687   0.01141  -0.1401  0.3298  0.0994  -2.7488   0.0000   0.0000   0.0000   0.3294
   6.640   1.3337   0.01689   0.01142  -0.1401  0.3298  0.1021  -2.7495   0.0000   0.0000   0.0000   0.3293
   6.650   1.3343   0.01690   0.01144  -0.1400  0.3298  0.1058  -2.7502   0.0000   0.0000   0.0000   0.3292
   6.660   1.3349   0.01691   0.01146  -0.1400  0.3297  0.1102  -2.7509   0.0000   0.0000   0.0000   0.3291
   6.670   1.3356   0.01692   0.01148  -0.1399  0.3297  0.1158  -2.7515   0.0000   0.0000   0.0000   0.3290
   6.680   1.3361   0.01692   0.01150  -0.1399  0.3297  0.1228  -2.7522   0.0000   0.0000   0.0000   0.3288
   6.690   1.3367   0.01692   0.01152  -0.1398  0.3297  0.1315  -2.7528   0.0000   0.0000   0.0000   0.3287
   6.700   1.3372   0.01692   0.01154  -0.1397  0.3296  0.1423  -2.7533   0.0000   0.0000   0.0000   0.3286
   6.710   1.3379   0.01694   0.01156  -0.1397  0.3296  0.1441  -2.7541   0.0000   0.0000   0.0000   0.3285
   6.720   1.3387   0.01695   0.01157  -0.1396  0.3296  0.1443  -2.7549   0.0000   0.0000   0.0000   0.3284
   6.730   1.3394   0.01697   0.01159  -0.1396  0.3295  0.1447  -2.7557   0.0000   0.0000   0.0000   0.3283
   6.740   1.3401   0.01698   0.01161  -0.1396  0.3295  0.1455  -2.7564   0.0000   0.0000   0.0000   0.3282
   6.750   1.3409   0.01700   0.01162  -0.1395  0.3295  0.1462  -2.7572   0.0000   0.0000   0.0000   0.3281
   6.760   1.3416   0.01701   0.01164  -0.1395  0.3295  0.1469  -2.7580   0.0000   0.0000   0.0000   0.3280
   6.770   1.3424   0.01703   0.01166  -0.1395  0.3294  0.1475  -2.7588   0.0000   0.0000   0.0000   0.3279
   6.780   1.3431   0.01704   0.01167  -0.1394  0.3294  0.1481  -2.7596   0.0000   0.0000   0.0000   0.3277
   6.790   1.3439   0.01705   0.01169  -0.1394  0.3294  0.1488  -2.7604   0.0000   0.0000   0.0000   0.3276
   6.800   1.3447   0.01707   0.01171  -0.1394  0.3293  0.1495  -2.7612   0.0000   0.0000   0.0000   0.3275
   6.810   1.3454   0.01708   0.01172  -0.1394  0.3293  0.1502  -2.7620   0.0000   0.0000   0.0000   0.3274
   6.820   1.3462   0.01710   0.01174  -0.1393  0.3293  0.1509  -2.7628   0.0000   0.0000   0.0000   0.3273
   6.830   1.3469   0.01711   0.01175  -0.1393  0.3292  0.1516  -2.7636   0.0000   0.0000   0.0000   0.3272
   6.840   1.3477   0.01712   0.01177  -0.1393  0.3292  0.1523  -2.7644   0.0000   0.0000   0.0000   0.3271
   6.850   1.3485   0.01714   0.01179  -0.1392  0.3292  0.1529  -2.7652   0.0000   0.0000   0.0000   0.3270
   6.860   1.3492   0.01715   0.01180  -0.1392  0.3291  0.1531  -2.7660   0.0000   0.0000   0.0000   0.3269
   6.870   1.3500   0.01717   0.01182  -0.1392  0.3291  0.1533  -2.7668   0.0000   0.0000   0.0000   0.3268
   6.880   1.3508   0.01718   0.01183  -0.1391  0.3291  0.1534  -2.7676   0.0000   0.0000   0.0000   0.3267
   6.890   1.3515   0.01720   0.01185  -0.1391  0.3290  0.1535  -2.7684   0.0000   0.0000   0.0000   0.3266
   6.900   1.3523   0.01721   0.01187  -0.1391  0.3290  0.1537  -2.7692   0.0000   0.0000   0.0000   0.3265
   6.910   1.3531   0.01723   0.01188  -0.1391  0.3290  0.1540  -2.7700   0.0000   0.0000   0.0000   0.3264
   6.920   1.3539   0.01724   0.01190  -0.1390  0.3289  0.1543  -2.7708   0.0000   0.0000   0.0000   0.3263
   6.930   1.3546   0.01726   0.01191  -0.1390  0.3289  0.1548  -2.7716   0.0000   0.0000   0.0000   0.3262
   6.940   1.3554   0.01727   0.01193  -0.1390  0.3288  0.1552  -2.7724   0.0000   0.0000   0.0000   0.3261
   6.950   1.3562   0.01729   0.01194  -0.1389  0.3288  0.1557  -2.7732   0.0000   0.0000   0.0000   0.3260
   6.960   1.3569   0.01730   0.01196  -0.1389  0.3288  0.1561  -2.7740   0.0000   0.0000   0.0000   0.3259
   6.970   1.3577   0.01732   0.01198  -0.1389  0.3287  0.1565  -2.7748   0.0000   0.0000   0.0000   0.3258
   6.980   1.3585   0.01733   0.01199  -0.1389  0.3287  0.1569  -2.7756   0.0000   0.0000   0.0000   0.3257
   6.990   1.3592   0.01735   0.01201  -0.1388  0.3287  0.1573  -2.7764   0.0000   0.0000   0.0000   0.3256
   7.000   1.3600   0.01736   0.01202  -0.1388  0.3286  0.1577  -2.7772   0.0000   0.0000   0.0000   0.3255
   7.010   1.3608   0.01738   0.01204  -0.1388  0.3286  0.1581  -2.7780   0.0000   0.0000   0.0000   0.3254
   7.020   1.3615   0.01739   0.01206  -0.1387  0.3285  0.1584  -2.7788   0.0000   0.0000   0.0000   0.3253
   7.030   1.3623   0.01741   0.01207  -0.1387  0.3285  0.1588  -2.7796   0.0000   0.0000   0.0000   0.3251
   7.040   1.3631   0.01742   0.01209  -0.1387  0.3285  0.1591  -2.7805   0.0000   0.0000   0.0000   0.3250
   7.050   1.3639   0.01744   0.01211  -0.1387  0.3284  0.1593  -2.7813   0.0000   0.0000   0.0000   0.3249
   7.060   1.3646   0.01745   0.01212  -0.1386  0.3284  0.1596  -2.7821   0.0000   0.0000   0.0000   0.3248
   7.070   1.3654   0.01747   0.01214  -0.1386  0.3283  0.1598  -2.7829   0.0000   0.0000   0.0000   0.3247
   7.080   1.3662   0.01748   0.01215  -0.1386  0.3283  0.1600  -2.7837   0.0000   0.0000   0.0000   0.3246
   7.090   1.3670   0.01750   0.01217  -0.1385  0.3282  0.1602  -2.7845   0.0000   0.0000   0.0000   0.3245
   7.100   1.3677   0.01751   0.01219  -0.1385  0.3282  0.1604  -2.7853   0.0000   0.0000   0.0000   0.3244
   7.110   1.3685   0.01753   0.01220  -0.1385  0.3282  0.1605  -2.7861   0.0000   0.0000   0.0000   0.3243
   7.120   1.3693   0.01754   0.01222  -0.1385  0.3281  0.1607  -2.7869   0.0000   0.0000   0.0000   0.3242
   7.130   1.3700   0.01756   0.01224  -0.1384  0.3281  0.1608  -2.7877   0.0000   0.0000   0.0000   0.3241
   7.140   1.3708   0.01758   0.01225  -0.1384  0.3280  0.1609  -2.7885   0.0000   0.0000   0.0000   0.3240
   7.150   1.3716   0.01759   0.01227  -0.1384  0.3280  0.1609  -2.7893   0.0000   0.0000   0.0000   0.3239
   7.160   1.3723   0.01761   0.01228  -0.1384  0.3279  0.1610  -2.7901   0.0000   0.0000   0.0000   0.3238
   7.170   1.3731   0.01762   0.01230  -0.1383  0.3279  0.1610  -2.7909   0.0000   0.0000   0.0000   0.3237
   7.180   1.3739   0.01764   0.01232  -0.1383  0.3279  0.1611  -2.7917   0.0000   0.0000   0.0000   0.3236
   7.190   1.3746   0.01766   0.01233  -0.1383  0.3278  0.1612  -2.7925   0.0000   0.0000   0.0000   0.3235
   7.200   1.3754   0.01767   0.01235  -0.1382  0.3278  0.1612  -2.7933   0.0000   0.0000   0.0000   0.3234
   7.210   1.3762   0.01769   0.01237  -0.1382  0.3277  0.1613  -2.7941   0.0000   0.0000   0.0000   0.3233
   7.220   1.3769   0.01770   0.01238  -0.1382  0.3277  0.1614  -2.7949   0.0000   0.0000   0.0000   0.3232
   7.230   1.3777   0.01772   0.01240  -0.1382  0.3276  0.1615  -2.7957   0.0000   0.0000   0.0000   0.3231
   7.240   1.3785   0.01774   0.01242  -0.1381  0.3276  0.1616  -2.7965   0.0000   0.0000   0.0000   0.3230
   7.250   1.3792   0.01775   0.01243  -0.1381  0.3275  0.1617  -2.7973   0.0000   0.0000   0.0000   0.3229
   7.260   1.3800   0.01777   0.01245  -0.1381  0.3275  0.1618  -2.7980   0.0000   0.0000   0.0000   0.3228
   7.270   1.3807   0.01779   0.01247  -0.1380  0.3274  0.1619  -2.7988   0.0000   0.0000   0.0000   0.3227
   7.280   1.3815   0.01780   0.01249  -0.1380  0.3274  0.1621  -2.7996   0.0000   0.0000   0.0000   0.3226
   7.290   1.3822   0.01782   0.01250  -0.1380  0.3273  0.1622  -2.8004   0.0000   0.0000   0.0000   0.3225
   7.300   1.3830   0.01784   0.01252  -0.1380  0.3273  0.1623  -2.8012   0.0000   0.0000   0.0000   0.3224
   7.310   1.3837   0.01785   0.01254  -0.1379  0.3273  0.1625  -2.8020   0.0000   0.0000   0.0000   0.3223
   7.320   1.3845   0.01787   0.01255  -0.1379  0.3272  0.1626  -2.8027   0.0000   0.0000   0.0000   0.3222
   7.330   1.3852   0.01789   0.01257  -0.1379  0.3272  0.1628  -2.8035   0.0000   0.0000   0.0000   0.3221
   7.340   1.3859   0.01791   0.01259  -0.1378  0.3271  0.1629  -2.8042   0.0000   0.0000   0.0000   0.3220
   7.350   1.3866   0.01793   0.01261  -0.1378  0.3271  0.1631  -2.8049   0.0000   0.0000   0.0000   0.3219
   7.360   1.3873   0.01795   0.01263  -0.1378  0.3270  0.1633  -2.8056   0.0000   0.0000   0.0000   0.3218
   7.370   1.3879   0.01797   0.01266  -0.1377  0.3270  0.1634  -2.8063   0.0000   0.0000   0.0000   0.3217
   7.380   1.3885   0.01799   0.01268  -0.1377  0.3269  0.1636  -2.8069   0.0000   0.0000   0.0000   0.3216
[...]
  10.160   1.5300   0.02706   0.02206  -0.1248  0.2917  0.3217  -2.9546   0.0000   0.0000   0.0000   0.2968
  10.170   1.5297   0.02714   0.02214  -0.1247  0.2912  0.3217  -2.9524   0.0000   0.0000   0.0000   0.2967
  10.180   1.5295   0.02723   0.02222  -0.1246  0.2907  0.3217  -2.9500   0.0000   0.0000   0.0000   0.2966
  10.190   1.5292   0.02731   0.02230  -0.1245  0.2902  0.3217  -2.9474   0.0000   0.0000   0.0000   0.2965
  10.200   1.5289   0.02739   0.02239  -0.1243  0.2897  0.3217  -2.9444   0.0000   0.0000   0.0000   0.2964
  10.210   1.5285   0.02748   0.02247  -0.1242  0.2892  0.3217  -2.9420   0.0000   0.0000   0.0000   0.2963
  10.220   1.5281   0.02757   0.02256  -0.1241  0.2886  0.3217  -2.9421   0.0000   0.0000   0.0000   0.2962
  10.230   1.5276   0.02766   0.02265  -0.1240  0.2881  0.3217  -2.9423   0.0000   0.0000   0.0000   0.2961
  10.240   1.5271   0.02776   0.02275  -0.1238  0.2875  0.3217  -2.9425   0.0000   0.0000   0.0000   0.2960
  10.250   1.5264   0.02786   0.02285  -0.1237  0.2870  0.3218  -2.9426   0.0000   0.0000   0.0000   0.2959
  10.260   1.5258   0.02797   0.02294  -0.1235  0.2864  0.3218  -2.9427   0.0000   0.0000   0.0000   0.2958
  10.270   1.5252   0.02807   0.02304  -0.1234  0.2858  0.3218  -2.9428   0.0000   0.0000   0.0000   0.2957
  10.280   1.5246   0.02817   0.02314  -0.1232  0.2852  0.3218  -2.9429   0.0000   0.0000   0.0000   0.2956
  10.290   1.5244   0.02824   0.02321  -0.1231  0.2846  0.3218  -2.9428   0.0000   0.0000   0.0000   0.2955
  10.300   1.5244   0.02832   0.02328  -0.1230  0.2842  0.3218  -2.9425   0.0000   0.0000   0.0000   0.2954
  10.310   1.5244   0.02838   0.02334  -0.1229  0.2837  0.3218  -2.9421   0.0000   0.0000   0.0000   0.2953
  10.320   1.5244   0.02845   0.02340  -0.1229  0.2833  0.3218  -2.9416   0.0000   0.0000   0.0000   0.2953
  10.330   1.5246   0.02851   0.02346  -0.1228  0.2830  0.3218  -2.9411   0.0000   0.0000   0.0000   0.2952
  10.340   1.5247   0.02857   0.02352  -0.1227  0.2826  0.3219  -2.9404   0.0000   0.0000   0.0000   0.2951
  10.350   1.5249   0.02862   0.02358  -0.1226  0.2823  0.3219  -2.9397   0.0000   0.0000   0.0000   0.2950
  10.360   1.5250   0.02868   0.02364  -0.1226  0.2820  0.3219  -2.9388   0.0000   0.0000   0.0000   0.2949
  10.370   1.5252   0.02874   0.02369  -0.1225  0.2817  0.3219  -2.9379   0.0000   0.0000   0.0000   0.2948
  10.380   1.5254   0.02880   0.02375  -0.1224  0.2813  0.3219  -2.9369   0.0000   0.0000   0.0000   0.2948
  10.390   1.5254   0.02886   0.02381  -0.1224  0.2810  0.3219  -2.9356   0.0000   0.0000   0.0000   0.2947
  10.400   1.5253   0.02894   0.02389  -0.1223  0.2807  0.3219  -2.9341   0.0000   0.0000   0.0000   0.2946
  10.410   1.5249   0.02903   0.02399  -0.1222  0.2804  0.3219  -2.9321   0.0000   0.0000   0.0000   0.2945
  10.420   1.5243   0.02914   0.02410  -0.1220  0.2801  0.3219  -2.9297   0.0000   0.0000   0.0000   0.2944
  10.430   1.5236   0.02926   0.02421  -0.1219  0.2798  0.3220  -2.9270   0.0000   0.0000   0.0000   0.2943
  10.440   1.5229   0.02937   0.02433  -0.1217  0.2794  0.3220  -2.9243   0.0000   0.0000   0.0000   0.2942
  10.450   1.5223   0.02948   0.02443  -0.1216  0.2791  0.3220  -2.9216   0.0000   0.0000   0.0000   0.2941
  10.460   1.5219   0.02958   0.02453  -0.1215  0.2788  0.3220  -2.9191   0.0000   0.0000   0.0000   0.2940
  10.470   1.5216   0.02967   0.02463  -0.1214  0.2785  0.3220  -2.9179   0.0000   0.0000   0.0000   0.2939
  10.480   1.5212   0.02976   0.02472  -0.1213  0.2781  0.3220  -2.9179   0.0000   0.0000   0.0000   0.2938
  10.490   1.5209   0.02985   0.02481  -0.1212  0.2778  0.3220  -2.9180   0.0000   0.0000   0.0000   0.2938
  10.500   1.5206   0.02994   0.02489  -0.1210  0.2774  0.3220  -2.9181   0.0000   0.0000   0.0000   0.2937
  10.510   1.5203   0.03003   0.02498  -0.1209  0.2771  0.3220  -2.9182   0.0000   0.0000   0.0000   0.2936
  10.520   1.5200   0.03012   0.02507  -0.1208  0.2767  0.3220  -2.9184   0.0000   0.0000   0.0000   0.2935
  10.530   1.5198   0.03021   0.02515  -0.1207  0.2763  0.3221  -2.9186   0.0000   0.0000   0.0000   0.2934
  10.540   1.5196   0.03029   0.02523  -0.1206  0.2759  0.3221  -2.9188   0.0000   0.0000   0.0000   0.2933
  10.550   1.5194   0.03037   0.02531  -0.1205  0.2756  0.3221  -2.9190   0.0000   0.0000   0.0000   0.2932
  10.560   1.5195   0.03044   0.02537  -0.1205  0.2752  0.3221  -2.9193   0.0000   0.0000   0.0000   0.2932
  10.570   1.5197   0.03049   0.02543  -0.1204  0.2750  0.3221  -2.9196   0.0000   0.0000   0.0000   0.2931
  10.580   1.5200   0.03055   0.02548  -0.1204  0.2747  0.3221  -2.9198   0.0000   0.0000   0.0000   0.2930
  10.590   1.5203   0.03060   0.02553  -0.1203  0.2745  0.3221  -2.9200   0.0000   0.0000   0.0000   0.2929
  10.600   1.5206   0.03065   0.02558  -0.1203  0.2743  0.3221  -2.9201   0.0000   0.0000   0.0000   0.2928
  10.610   1.5209   0.03070   0.02563  -0.1202  0.2741  0.3221  -2.9202   0.0000   0.0000   0.0000   0.2928
  10.620   1.5213   0.03075   0.02569  -0.1202  0.2738  0.3222  -2.9203   0.0000   0.0000   0.0000   0.2927
  10.630   1.5216   0.03080   0.02574  -0.1201  0.2736  0.3222  -2.9203   0.0000   0.0000   0.0000   0.2926
  10.640   1.5220   0.03085   0.02578  -0.1201  0.2734  0.3222  -2.9203   0.0000   0.0000   0.0000   0.2925
  10.650   1.5223   0.03090   0.02583  -0.1200  0.2732  0.3222  -2.9203   0.0000   0.0000   0.0000   0.2925
  10.660   1.5227   0.03095   0.02588  -0.1200  0.2730  0.3222  -2.9202   0.0000   0.0000   0.0000   0.2924
  10.670   1.5231   0.03100   0.02593  -0.1199  0.2728  0.3222  -2.9201   0.0000   0.0000   0.0000   0.2923
  10.680   1.5235   0.03105   0.02598  -0.1199  0.2727  0.3222  -2.9200   0.0000   0.0000   0.0000   0.2922
  10.690   1.5238   0.03109   0.02603  -0.1199  0.2725  0.3222  -2.9198   0.0000   0.0000   0.0000   0.2922
  10.700   1.5242   0.03114   0.02607  -0.1198  0.2723  0.3223  -2.9196   0.0000   0.0000   0.0000   0.2921
  10.710   1.5246   0.03119   0.02612  -0.1198  0.2721  0.3223  -2.9194   0.0000   0.0000   0.0000   0.2920
  10.720   1.5250   0.03124   0.02617  -0.1197  0.2719  0.3223  -2.9191   0.0000   0.0000   0.0000   0.2920
  10.730   1.5254   0.03128   0.02622  -0.1197  0.2717  0.3223  -2.9189   0.0000   0.0000   0.0000   0.2919
  10.740   1.5258   0.03133   0.02626  -0.1197  0.2716  0.3223  -2.9186   0.0000   0.0000   0.0000   0.2918
  10.750   1.5262   0.03138   0.02631  -0.1196  0.2714  0.3223  -2.9183   0.0000   0.0000   0.0000   0.2917
  10.760   1.5266   0.03143   0.02636  -0.1196  0.2712  0.3223  -2.9179   0.0000   0.0000   0.0000   0.2917
  10.770   1.5270   0.03148   0.02641  -0.1195  0.2711  0.3223  -2.9176   0.0000   0.0000   0.0000   0.2916
  10.780   1.5274   0.03152   0.02646  -0.1195  0.2709  0.3224  -2.9172   0.0000   0.0000   0.0000   0.2915
  10.790   1.5277   0.03157   0.02651  -0.1195  0.2707  0.3224  -2.9168   0.0000   0.0000   0.0000   0.2914
  10.800   1.5281   0.03162   0.02656  -0.1194  0.2706  0.3224  -2.9163   0.0000   0.0000   0.0000   0.2914
  10.810   1.5284   0.03168   0.02661  -0.1194  0.2704  0.3224  -2.9158   0.0000   0.0000   0.0000   0.2913
  10.820   1.5286   0.03174   0.02667  -0.1193  0.2703  0.3224  -2.9151   0.0000   0.0000   0.0000   0.2912
  10.830   1.5286   0.03181   0.02674  -0.1193  0.2701  0.3224  -2.9142   0.0000   0.0000   0.0000   0.2911
  10.840   1.5285   0.03189   0.02683  -0.1192  0.2699  0.3224  -2.9130   0.0000   0.0000   0.0000   0.2911
  10.850   1.5283   0.03199   0.02692  -0.1191  0.2698  0.3224  -2.9118   0.0000   0.0000   0.0000   0.2910
  10.860   1.5280   0.03208   0.02702  -0.1190  0.2696  0.3224  -2.9104   0.0000   0.0000   0.0000   0.2909
  10.870   1.5279   0.03217   0.02711  -0.1189  0.2695  0.3224  -2.9091   0.0000   0.0000   0.0000   0.2908
  10.880   1.5277   0.03226   0.02720  -0.1188  0.2693  0.3225  -2.9080   0.0000   0.0000   0.0000   0.2907
  10.890   1.5277   0.03234   0.02728  -0.1188  0.2692  0.3225  -2.9069   0.0000   0.0000   0.0000   0.2907
  10.900   1.5278   0.03241   0.02735  -0.1187  0.2690  0.3225  -2.9059   0.0000   0.0000   0.0000   0.2906
  10.910   1.5279   0.03248   0.02742  -0.1186  0.2689  0.3225  -2.9049   0.0000   0.0000   0.0000   0.2905
  10.920   1.5280   0.03255   0.02749  -0.1186  0.2687  0.3225  -2.9051   0.0000   0.0000   0.0000   0.2904
  10.930   1.5282   0.03262   0.02756  -0.1185  0.2686  0.3225  -2.9054   0.0000   0.0000   0.0000   0.2904
  10.940   1.5284   0.03268   0.02762  -0.1185  0.2684  0.3225  -2.9058   0.0000   0.0000   0.0000   0.2903
  10.950   1.5286   0.03274   0.02768  -0.1184  0.2683  0.3225  -2.9062   0.0000   0.0000   0.0000   0.2902
  10.960   1.5288   0.03280   0.02774  -0.1184  0.2682  0.3225  -2.9066   0.0000   0.0000   0.0000   0.2902
  10.970   1.5291   0.03286   0.02780  -0.1183  0.2680  0.3226  -2.9070   0.0000   0.0000   0.0000   0.2901
  10.980   1.5293   0.03292   0.02786  -0.1183  0.2679  0.3226  -2.9075   0.0000   0.0000   0.0000   0.2900
  10.990   1.5296   0.03298   0.02792  -0.1182  0.2678  0.3226  -2.9079   0.0000   0.0000   0.0000   0.2899
  11.000   1.5299   0.03303   0.02798  -0.1182  0.2676  0.3226  -2.9084   0.0000   0.0000   0.0000   0.2899
  11.010   1.5302   0.03309   0.02803  -0.1181  0.2675  0.3226  -2.9089   0.0000   0.0000   0.0000   0.2898
  11.020   1.5305   0.03314   0.02809  -0.1181  0.2673  0.3226  -2.9094   0.0000   0.0000   0.0000   0.2897
  11.030   1.5309   0.03320   0.02814  -0.1180  0.2672  0.3226  -2.9099   0.0000   0.0000   0.0000   0.2896
  11.040   1.5312   0.03325   0.02820  -0.1180  0.2671  0.3226  -2.9104   0.0000   0.0000   0.0000   0.2896
  11.050   1.5315   0.03331   0.02825  -0.1180  0.2669  0.3226  -2.9109   0.0000   0.0000   0.0000   0.2895
  11.060   1.5319   0.03336   0.02830  -0.1179  0.2668  0.3227  -2.9114   0.0000   0.0000   0.0000   0.2894
  11.070   1.5322   0.03341   0.02836  -0.1179  0.2667  0.3227  -2.9120   0.0000   0.0000   0.0000   0.2894
  11.080   1.5326   0.03347   0.02841  -0.1178  0.2665  0.3227  -2.9125   0.0000   0.0000   0.0000   0.2893
  11.090   1.5329   0.03352   0.02846  -0.1178  0.2664  0.3227  -2.9130   0.0000   0.0000   0.0000   0.2892
  11.100   1.5333   0.03357   0.02851  -0.1178  0.2663  0.3227  -2.9136   0.0000   0.0000   0.0000   0.2892
  11.110   1.5337   0.03362   0.02856  -0.1177  0.2661  0.3227  -2.9141   0.0000   0.0000   0.0000   0.2891
  11.120   1.5340   0.03367   0.02862  -0.1177  0.2660  0.3227  -2.9147   0.0000   0.0000   0.0000   0.2890
  11.130   1.5344   0.03372   0.02867  -0.1177  0.2658  0.3227  -2.9152   0.0000   0.0000   0.0000   0.2889
  11.140   1.5348   0.03377   0.02872  -0.1176  0.2657  0.3227  -2.9158   0.0000   0.0000   0.0000   0.2889
  11.150   1.5352   0.03382   0.02877  -0.1176  0.2655  0.3228  -2.9163   0.0000   0.0000   0.0000   0.2888
  11.160   1.5357   0.03387   0.02880  -0.1176  0.2654  0.3228  -2.9169   0.0000   0.0000   0.0000   0.2887
  11.170   1.5362   0.03391   0.02884  -0.1175  0.2654  0.3228  -2.9175   0.0000   0.0000   0.0000   0.2887
  11.180   1.5368   0.03395   0.02888  -0.1175  0.2653  0.3228  -2.9181   0.0000   0.0000   0.0000   0.2886
  11.190   1.5374   0.03399   0.02892  -0.1175  0.2652  0.3228  -2.9186   0.0000   0.0000   0.0000   0.2885
  11.200   1.5379   0.03402   0.02896  -0.1175  0.2652  0.3228  -2.9192   0.0000   0.0000   0.0000   0.2885
  11.210   1.5385   0.03406   0.02900  -0.1175  0.2651  0.3228  -2.9198   0.0000   0.0000   0.0000   0.2884
  11.220   1.5390   0.03410   0.02904  -0.1174  0.2650  0.3228  -2.9203   0.0000   0.0000   0.0000   0.2883
  11.230   1.5396   0.03414   0.02908  -0.1174  0.2649  0.3228  -2.9209   0.0000   0.0000   0.0000   0.2883
  11.240   1.5402   0.03418   0.02912  -0.1174  0.2649  0.3229  -2.9214   0.0000   0.0000   0.0000   0.2882
  11.250   1.5407   0.03422   0.02916  -0.1174  0.2648  0.3229  -2.9219   0.0000   0.0000   0.0000   0.2881
  11.260   1.5412   0.03426   0.02921  -0.1174  0.2647  0.3229  -2.9224   0.0000   0.0000   0.0000   0.2881
  11.270   1.5418   0.03431   0.02925  -0.1173  0.2646  0.3229  -2.9229   0.0000   0.0000   0.0000   0.2880
  11.280   1.5423   0.03435   0.02929  -0.1173  0.2645  0.3229  -2.9234   0.0000   0.0000   0.0000   0.2879
  11.290   1.5428   0.03439   0.02934  -0.1173  0.2644  0.3229  -2.9238   0.0000   0.0000   0.0000   0.2879
  11.300   1.5432   0.03444   0.02938  -0.1173  0.2643  0.3229  -2.9241   0.0000   0.0000   0.0000   0.2878
  11.310   1.5436   0.03449   0.02943  -0.1172  0.2642  0.3229  -2.9243   0.0000   0.0000   0.0000   0.2877
  11.320   1.5440   0.03454   0.02949  -0.1172  0.2640  0.3229  -2.9244   0.0000   0.0000   0.0000   0.2877
  11.330   1.5442   0.03460   0.02954  -0.1171  0.2638  0.3230  -2.9243   0.0000   0.0000   0.0000   0.2876
  11.340   1.5444   0.03467   0.02961  -0.1171  0.2636  0.3230  -2.9241   0.0000   0.0000   0.0000   0.2875
  11.350   1.5445   0.03474   0.02969  -0.1170  0.2634  0.3230  -2.9236   0.0000   0.0000   0.0000   0.2875
  11.360   1.5444   0.03483   0.02978  -0.1170  0.2633  0.3230  -2.9230   0.0000   0.0000   0.0000   0.2874
  11.370   1.5441   0.03493   0.02988  -0.1169  0.2631  0.3230  -2.9220   0.0000   0.0000   0.0000   0.2873
  11.380   1.5438   0.03504   0.02998  -0.1168  0.2629  0.3230  -2.9210   0.0000   0.0000   0.0000   0.2872
  11.390   1.5435   0.03514   0.03009  -0.1167  0.2627  0.3230  -2.9199   0.0000   0.0000   0.0000   0.2872
  11.400   1.5433   0.03523   0.03018  -0.1166  0.2625  0.3230  -2.9190   0.0000   0.0000   0.0000   0.2871
  11.410   1.5432   0.03532   0.03027  -0.1166  0.2623  0.3230  -2.9182   0.0000   0.0000   0.0000   0.2870
  11.420   1.5432   0.03540   0.03035  -0.1165  0.2622  0.3230  -2.9174   0.0000   0.0000   0.0000   0.2869
  11.430   1.5433   0.03548   0.03043  -0.1164  0.2620  0.3230  -2.9167   0.0000   0.0000   0.0000   0.2869
  11.440   1.5434   0.03555   0.03050  -0.1164  0.2618  0.3231  -2.9160   0.0000   0.0000   0.0000   0.2868
  11.450   1.5435   0.03562   0.03057  -0.1163  0.2616  0.3231  -2.9153   0.0000   0.0000   0.0000   0.2867
  11.460   1.5437   0.03569   0.03064  -0.1163  0.2615  0.3231  -2.9147   0.0000   0.0000   0.0000   0.2867
  11.470   1.5439   0.03575   0.03071  -0.1162  0.2613  0.3231  -2.9140   0.0000   0.0000   0.0000   0.2866
  11.480   1.5441   0.03582   0.03077  -0.1162  0.2611  0.3231  -2.9134   0.0000   0.0000   0.0000   0.2865
  11.490   1.5443   0.03588   0.03084  -0.1161  0.2610  0.3231  -2.9128   0.0000   0.0000   0.0000   0.2865
  11.500   1.5445   0.03594   0.03090  -0.1161  0.2608  0.3231  -2.9121   0.0000   0.0000   0.0000   0.2864
  11.510   1.5448   0.03601   0.03096  -0.1161  0.2606  0.3231  -2.9114   0.0000   0.0000   0.0000   0.2863
  11.520   1.5450   0.03607   0.03102  -0.1160  0.2605  0.3231  -2.9108   0.0000   0.0000   0.0000   0.2862
  11.530   1.5453   0.03613   0.03108  -0.1160  0.2603  0.3231  -2.9101   0.0000   0.0000   0.0000   0.2862
  11.540   1.5455   0.03619   0.03114  -0.1159  0.2602  0.3231  -2.9094   0.0000   0.0000   0.0000   0.2861
  11.550   1.5458   0.03625   0.03120  -0.1159  0.2600  0.3232  -2.9098   0.0000   0.0000   0.0000   0.2860
  11.560   1.5461   0.03631   0.03126  -0.1158  0.2599  0.3232  -2.9103   0.0000   0.0000   0.0000   0.2860
  11.570   1.5463   0.03637   0.03133  -0.1158  0.2597  0.3232  -2.9108   0.0000   0.0000   0.0000   0.2859
  11.580   1.5466   0.03643   0.03139  -0.1158  0.2595  0.3232  -2.9113   0.0000   0.0000   0.0000   0.2858
  11.590   1.5469   0.03649   0.03145  -0.1157  0.2594  0.3232  -2.9117   0.0000   0.0000   0.0000   0.2858
  11.600   1.5471   0.03655   0.03151  -0.1157  0.2592  0.3232  -2.9122   0.0000   0.0000   0.0000   0.2857
  11.610   1.5474   0.03661   0.03156  -0.1156  0.2591  0.3232  -2.9127   0.0000   0.0000   0.0000   0.2856
  11.620   1.5477   0.03667   0.03162  -0.1156  0.2589  0.3232  -2.9132   0.0000   0.0000   0.0000   0.2856
  11.630   1.5479   0.03673   0.03169  -0.1155  0.2588  0.3232  -2.9136   0.0000   0.0000   0.0000   0.2855
  11.640   1.5482   0.03679   0.03175  -0.1155  0.2586  0.3232  -2.9141   0.0000   0.0000   0.0000   0.2854
  11.650   1.5485   0.03685   0.03181  -0.1155  0.2585  0.3233  -2.9146   0.0000   0.0000   0.0000   0.2854
  11.660   1.5487   0.03691   0.03187  -0.1154  0.2584  0.3233  -2.9151   0.0000   0.0000   0.0000   0.2853
  11.670   1.5490   0.03697   0.03193  -0.1154  0.2582  0.3233  -2.9155   0.0000   0.0000   0.0000   0.2852
  11.680   1.5493   0.03703   0.03198  -0.1153  0.2581  0.3233  -2.9160   0.0000   0.0000   0.0000   0.2852
  11.690   1.5496   0.03709   0.03204  -0.1153  0.2579  0.3233  -2.9165   0.0000   0.0000   0.0000   0.2851
  11.700   1.5498   0.03715   0.03210  -0.1153  0.2578  0.3233  -2.9170   0.0000   0.0000   0.0000   0.2850
  11.710   1.5501   0.03721   0.03216  -0.1152  0.2577  0.3233  -2.9174   0.0000   0.0000   0.0000   0.2850
  11.720   1.5504   0.03727   0.03222  -0.1152  0.2575  0.3233  -2.9179   0.0000   0.0000   0.0000   0.2849
  11.730   1.5507   0.03732   0.03228  -0.1151  0.2574  0.3233  -2.9184   0.0000   0.0000   0.0000   0.2848
  11.740   1.5510   0.03738   0.03234  -0.1151  0.2572  0.3233  -2.9189   0.0000   0.0000   0.0000   0.2848
  11.750   1.5513   0.03744   0.03240  -0.1151  0.2571  0.3233  -2.9193   0.0000   0.0000   0.0000   0.2847
  11.760   1.5516   0.03750   0.03246  -0.1150  0.2570  0.3234  -2.9198   0.0000   0.0000   0.0000   0.2846
  11.770   1.5519   0.03756   0.03252  -0.1150  0.2569  0.3234  -2.9203   0.0000   0.0000   0.0000   0.2846
  11.780   1.5522   0.03761   0.03257  -0.1150  0.2567  0.3234  -2.9208   0.0000   0.0000   0.0000   0.2845
  11.790   1.5526   0.03767   0.03263  -0.1149  0.2566  0.3234  -2.9214   0.0000   0.0000   0.0000   0.2844
  11.800   1.5529   0.03773   0.03269  -0.1149  0.2565  0.3234  -2.9218   0.0000   0.0000   0.0000   0.2844
  11.810   1.5531   0.03780   0.03276  -0.1148  0.2564  0.3234  -2.9221   0.0000   0.0000   0.0000   0.2843
  11.820   1.5531   0.03788   0.03284  -0.1148  0.2562  0.3234  -2.9222   0.0000   0.0000   0.0000   0.2842
  11.830   1.5530   0.03797   0.03294  -0.1147  0.2561  0.3234  -2.9221   0.0000   0.0000   0.0000   0.2842
  11.840   1.5527   0.03808   0.03304  -0.1147  0.2560  0.3234  -2.9218   0.0000   0.0000   0.0000   0.2841
  11.850   1.5523   0.03820   0.03316  -0.1146  0.2558  0.3234  -2.9213   0.0000   0.0000   0.0000   0.2840
  11.860   1.5520   0.03830   0.03327  -0.1145  0.2557  0.3234  -2.9210   0.0000   0.0000   0.0000   0.2840
  11.870   1.5520   0.03839   0.03336  -0.1144  0.2556  0.3234  -2.9209   0.0000   0.0000   0.0000   0.2839
  11.880   1.5520   0.03847   0.03343  -0.1144  0.2555  0.3235  -2.9210   0.0000   0.0000   0.0000   0.2838
  11.890   1.5522   0.03855   0.03351  -0.1143  0.2554  0.3235  -2.9210   0.0000   0.0000   0.0000   0.2838
  11.900   1.5524   0.03862   0.03358  -0.1143  0.2553  0.3235  -2.9211   0.0000   0.0000   0.0000   0.2837
  11.910   1.5526   0.03868   0.03365  -0.1143  0.2552  0.3235  -2.9213   0.0000   0.0000   0.0000   0.2836
  11.920   1.5530   0.03874   0.03371  -0.1142  0.2552  0.3235  -2.9216   0.0000   0.0000   0.0000   0.2836
  11.930   1.5533   0.03880   0.03377  -0.1142  0.2551  0.3235  -2.9219   0.0000   0.0000   0.0000   0.2835
  11.940   1.5537   0.03886   0.03382  -0.1142  0.2551  0.3235  -2.9222   0.0000   0.0000   0.0000   0.2834
  11.950   1.5541   0.03891   0.03388  -0.1142  0.2550  0.3235  -2.9226   0.0000   0.0000   0.0000   0.2834
  11.960   1.5546   0.03896   0.03393  -0.1141  0.2549  0.3235  -2.9230   0.0000   0.0000   0.0000   0.2833
  11.970   1.5550   0.03901   0.03398  -0.1141  0.2549  0.3235  -2.9234   0.0000   0.0000   0.0000   0.2833
  11.980   1.5555   0.03906   0.03403  -0.1141  0.2548  0.3235  -2.9239   0.0000   0.0000   0.0000   0.2832
  11.990   1.5560   0.03911   0.03408  -0.1141  0.2548  0.3236  -2.9243   0.0000   0.0000   0.0000   0.2831
  12.000   1.5565   0.03916   0.03413  -0.1141  0.2548  0.3236  -2.9248   0.0000   0.0000   0.0000   0.2831


