xflr5 v6.61

 Calculated polar for: Airfoil-RevE-HC

 1 1 Reynolds number fixed          Mach number fixed         

 xtrf =   1.000 (top)        1.000 (bottom)
 Mach =   0.450     Re =     6.000 e 6     Ncrit =   0.500

  alpha     CL        CD       CDp       Cm    Top Xtr Bot Xtr   Cpmin    Chinge    XCp    
 ------- -------- --------- --------- -------- ------- ------- -------- --------- ---------
   0.000   0.7386   0.01594   0.01046  -0.1584  0.3370  0.0193  -2.5362   0.0000   0.0000   0.0000   0.4557
   0.010   0.7396   0.01596   0.01047  -0.1584  0.3370  0.0193  -2.5374   0.0000   0.0000   0.0000   0.4553
   0.020   0.7406   0.01597   0.01048  -0.1583  0.3370  0.0193  -2.5386   0.0000   0.0000   0.0000   0.4549
   0.030   0.7416   0.01598   0.01049  -0.1583  0.3370  0.0193  -2.5398   0.0000   0.0000   0.0000   0.4545
   0.040   0.7426   0.01599   0.01050  -0.1582  0.3370  0.0194  -2.5410   0.0000   0.0000   0.0000   0.4541
   0.050   0.7436   0.01600   0.01051  -0.1582  0.3370  0.0194  -2.5422   0.0000   0.0000   0.0000   0.4537
   0.060   0.7446   0.01601   0.01053  -0.1581  0.3370  0.0194  -2.5433   0.0000   0.0000   0.0000   0.4533
   0.070   0.7457   0.01602   0.01054  -0.1581  0.3369  0.0194  -2.5445   0.0000   0.0000   0.0000   0.4529
   0.080   0.7467   0.01603   0.01055  -0.1581  0.3369  0.0194  -2.5457   0.0000   0.0000   0.0000   0.4525
   0.090   0.7477   0.01604   0.01056  -0.1580  0.3369  0.0194  -2.5469   0.0000   0.0000   0.0000   0.4521
   0.100   0.7487   0.01606   0.01057  -0.1580  0.3369  0.0194  -2.5481   0.0000   0.0000   0.0000   0.4518
   0.110   0.7497   0.01607   0.01058  -0.1579  0.3369  0.0194  -2.5493   0.0000   0.0000   0.0000   0.4514
   0.120   0.7507   0.01608   0.01059  -0.1579  0.3369  0.0194  -2.5505   0.0000   0.0000   0.0000   0.4510
   0.130   0.7517   0.01609   0.01061  -0.1578  0.3369  0.0194  -2.5517   0.0000   0.0000   0.0000   0.4506
   0.140   0.7527   0.01610   0.01062  -0.1578  0.3368  0.0194  -2.5528   0.0000   0.0000   0.0000   0.4502
   0.150   0.7537   0.01611   0.01063  -0.1578  0.3368  0.0195  -2.5540   0.0000   0.0000   0.0000   0.4499
   0.160   0.7547   0.01612   0.01064  -0.1577  0.3368  0.0195  -2.5552   0.0000   0.0000   0.0000   0.4495
   0.170   0.7557   0.01614   0.01065  -0.1577  0.3368  0.0195  -2.5564   0.0000   0.0000   0.0000   0.4491
   0.180   0.7567   0.01615   0.01067  -0.1576  0.3368  0.0195  -2.5576   0.0000   0.0000   0.0000   0.4487
   0.190   0.7577   0.01616   0.01068  -0.1576  0.3368  0.0195  -2.5588   0.0000   0.0000   0.0000   0.4483
   0.200   0.7587   0.01617   0.01069  -0.1575  0.3368  0.0195  -2.5600   0.0000   0.0000   0.0000   0.4480
   0.210   0.7597   0.01618   0.01070  -0.1575  0.3368  0.0195  -2.5611   0.0000   0.0000   0.0000   0.4476
   0.220   0.7607   0.01619   0.01071  -0.1574  0.3367  0.0195  -2.5623   0.0000   0.0000   0.0000   0.4472
   0.230   0.7617   0.01621   0.01073  -0.1574  0.3367  0.0195  -2.5635   0.0000   0.0000   0.0000   0.4469
   0.240   0.7626   0.01622   0.01074  -0.1574  0.3367  0.0195  -2.5647   0.0000   0.0000   0.0000   0.4465
   0.250   0.7636   0.01623   0.01075  -0.1573  0.3367  0.0195  -2.5658   0.0000   0.0000   0.0000   0.4461
   0.260   0.7646   0.01624   0.01076  -0.1573  0.3367  0.0196  -2.5669   0.0000   0.0000   0.0000   0.4458
   0.270   0.7655   0.01626   0.01078  -0.1572  0.3367  0.0196  -2.5680   0.0000   0.0000   0.0000   0.4454
   0.280   0.7664   0.01627   0.01079  -0.1572  0.3367  0.0196  -2.5691   0.0000   0.0000   0.0000   0.4450
   0.290   0.7673   0.01629   0.01081  -0.1571  0.3367  0.0196  -2.5702   0.0000   0.0000   0.0000   0.4447
   0.300   0.7682   0.01630   0.01082  -0.1571  0.3366  0.0196  -2.5713   0.0000   0.0000   0.0000   0.4443
   0.310   0.7691   0.01632   0.01084  -0.1570  0.3366  0.0196  -2.5724   0.0000   0.0000   0.0000   0.4440
   0.320   0.7700   0.01633   0.01086  -0.1569  0.3366  0.0196  -2.5734   0.0000   0.0000   0.0000   0.4436
   0.330   0.7708   0.01635   0.01087  -0.1569  0.3366  0.0196  -2.5744   0.0000   0.0000   0.0000   0.4433
   0.340   0.7717   0.01637   0.01089  -0.1568  0.3366  0.0196  -2.5755   0.0000   0.0000   0.0000   0.4429
   0.350   0.7725   0.01638   0.01091  -0.1568  0.3366  0.0196  -2.5765   0.0000   0.0000   0.0000   0.4426
   0.360   0.7734   0.01640   0.01093  -0.1567  0.3366  0.0196  -2.5775   0.0000   0.0000   0.0000   0.4423
   0.370   0.7742   0.01642   0.01094  -0.1566  0.3365  0.0196  -2.5785   0.0000   0.0000   0.0000   0.4419
   0.380   0.7751   0.01643   0.01096  -0.1566  0.3365  0.0197  -2.5795   0.0000   0.0000   0.0000   0.4416
   0.390   0.7759   0.01645   0.01098  -0.1565  0.3365  0.0197  -2.5805   0.0000   0.0000   0.0000   0.4412
   0.400   0.7768   0.01647   0.01100  -0.1565  0.3365  0.0197  -2.5816   0.0000   0.0000   0.0000   0.4409
   0.410   0.7776   0.01649   0.01101  -0.1564  0.3365  0.0197  -2.5826   0.0000   0.0000   0.0000   0.4405
   0.420   0.7785   0.01650   0.01103  -0.1563  0.3365  0.0197  -2.5836   0.0000   0.0000   0.0000   0.4402
   0.430   0.7794   0.01652   0.01105  -0.1563  0.3365  0.0197  -2.5846   0.0000   0.0000   0.0000   0.4399
   0.440   0.7802   0.01653   0.01106  -0.1562  0.3365  0.0197  -2.5857   0.0000   0.0000   0.0000   0.4395
   0.450   0.7811   0.01655   0.01108  -0.1562  0.3364  0.0197  -2.5867   0.0000   0.0000   0.0000   0.4392
   0.460   0.7820   0.01657   0.01110  -0.1561  0.3364  0.0197  -2.5878   0.0000   0.0000   0.0000   0.4388
   0.470   0.7829   0.01658   0.01111  -0.1561  0.3364  0.0197  -2.5889   0.0000   0.0000   0.0000   0.4385
   0.480   0.7838   0.01660   0.01113  -0.1560  0.3364  0.0197  -2.5899   0.0000   0.0000   0.0000   0.4382
   0.490   0.7847   0.01661   0.01115  -0.1560  0.3364  0.0197  -2.5910   0.0000   0.0000   0.0000   0.4378
   0.500   0.7856   0.01663   0.01116  -0.1559  0.3364  0.0197  -2.5921   0.0000   0.0000   0.0000   0.4375
   0.510   0.7865   0.01664   0.01118  -0.1559  0.3364  0.0198  -2.5932   0.0000   0.0000   0.0000   0.4371
   0.520   0.7874   0.01666   0.01119  -0.1558  0.3364  0.0198  -2.5943   0.0000   0.0000   0.0000   0.4368
   0.530   0.7884   0.01667   0.01121  -0.1558  0.3363  0.0198  -2.5954   0.0000   0.0000   0.0000   0.4365
   0.540   0.7893   0.01669   0.01122  -0.1557  0.3363  0.0198  -2.5965   0.0000   0.0000   0.0000   0.4361
   0.550   0.7902   0.01670   0.01124  -0.1557  0.3363  0.0198  -2.5976   0.0000   0.0000   0.0000   0.4358
   0.560   0.7912   0.01672   0.01125  -0.1556  0.3363  0.0198  -2.5987   0.0000   0.0000   0.0000   0.4355
   0.570   0.7921   0.01673   0.01127  -0.1556  0.3363  0.0198  -2.5998   0.0000   0.0000   0.0000   0.4351
   0.580   0.7931   0.01675   0.01128  -0.1555  0.3363  0.0198  -2.6009   0.0000   0.0000   0.0000   0.4348
   0.590   0.7940   0.01676   0.01130  -0.1555  0.3363  0.0198  -2.6021   0.0000   0.0000   0.0000   0.4345
   0.600   0.7950   0.01678   0.01131  -0.1554  0.3362  0.0198  -2.6032   0.0000   0.0000   0.0000   0.4341
   0.610   0.7959   0.01679   0.01133  -0.1554  0.3362  0.0198  -2.6043   0.0000   0.0000   0.0000   0.4338
   0.620   0.7969   0.01680   0.01134  -0.1553  0.3362  0.0198  -2.6054   0.0000   0.0000   0.0000   0.4335
   0.630   0.7978   0.01682   0.01136  -0.1553  0.3362  0.0199  -2.6066   0.0000   0.0000   0.0000   0.4331
   0.640   0.7988   0.01683   0.01137  -0.1552  0.3362  0.0199  -2.6077   0.0000   0.0000   0.0000   0.4328
   0.650   0.7997   0.01685   0.01138  -0.1552  0.3362  0.0199  -2.6088   0.0000   0.0000   0.0000   0.4325
   0.660   0.8007   0.01686   0.01140  -0.1551  0.3362  0.0199  -2.6100   0.0000   0.0000   0.0000   0.4321
   0.670   0.8016   0.01687   0.01141  -0.1551  0.3362  0.0199  -2.6111   0.0000   0.0000   0.0000   0.4318
   0.680   0.8026   0.01689   0.01143  -0.1551  0.3361  0.0199  -2.6123   0.0000   0.0000   0.0000   0.4315
   0.690   0.8036   0.01690   0.01144  -0.1550  0.3361  0.0199  -2.6134   0.0000   0.0000   0.0000   0.4312
   0.700   0.8045   0.01691   0.01146  -0.1550  0.3361  0.0199  -2.6145   0.0000   0.0000   0.0000   0.4308
   0.710   0.8055   0.01693   0.01147  -0.1549  0.3361  0.0199  -2.6157   0.0000   0.0000   0.0000   0.4305
   0.720   0.8065   0.01694   0.01148  -0.1549  0.3361  0.0199  -2.6168   0.0000   0.0000   0.0000   0.4302
   0.730   0.8074   0.01696   0.01150  -0.1548  0.3361  0.0199  -2.6180   0.0000   0.0000   0.0000   0.4299
   0.740   0.8084   0.01697   0.01151  -0.1548  0.3361  0.0199  -2.6191   0.0000   0.0000   0.0000   0.4295
   0.750   0.8094   0.01698   0.01153  -0.1547  0.3361  0.0199  -2.6203   0.0000   0.0000   0.0000   0.4292
   0.760   0.8104   0.01700   0.01154  -0.1547  0.3360  0.0200  -2.6214   0.0000   0.0000   0.0000   0.4289
   0.770   0.8113   0.01701   0.01155  -0.1547  0.3360  0.0200  -2.6226   0.0000   0.0000   0.0000   0.4286
   0.780   0.8123   0.01702   0.01157  -0.1546  0.3360  0.0200  -2.6237   0.0000   0.0000   0.0000   0.4282
   0.790   0.8133   0.01704   0.01158  -0.1546  0.3360  0.0200  -2.6249   0.0000   0.0000   0.0000   0.4279
   0.800   0.8143   0.01705   0.01160  -0.1545  0.3360  0.0200  -2.6260   0.0000   0.0000   0.0000   0.4276
   0.810   0.8152   0.01706   0.01161  -0.1545  0.3360  0.0200  -2.6272   0.0000   0.0000   0.0000   0.4273
   0.820   0.8162   0.01708   0.01162  -0.1544  0.3360  0.0200  -2.6283   0.0000   0.0000   0.0000   0.4270
   0.830   0.8172   0.01709   0.01164  -0.1544  0.3360  0.0200  -2.6295   0.0000   0.0000   0.0000   0.4266
   0.840   0.8182   0.01711   0.01165  -0.1544  0.3359  0.0200  -2.6306   0.0000   0.0000   0.0000   0.4263
   0.850   0.8191   0.01712   0.01167  -0.1543  0.3359  0.0200  -2.6318   0.0000   0.0000   0.0000   0.4260
   0.860   0.8201   0.01713   0.01168  -0.1543  0.3359  0.0200  -2.6329   0.0000   0.0000   0.0000   0.4257
   0.870   0.8211   0.01715   0.01169  -0.1542  0.3359  0.0200  -2.6341   0.0000   0.0000   0.0000   0.4254
   0.880   0.8221   0.01716   0.01171  -0.1542  0.3359  0.0200  -2.6352   0.0000   0.0000   0.0000   0.4251
   0.890   0.8230   0.01717   0.01172  -0.1541  0.3359  0.0201  -2.6364   0.0000   0.0000   0.0000   0.4248
   0.900   0.8240   0.01719   0.01174  -0.1541  0.3359  0.0201  -2.6376   0.0000   0.0000   0.0000   0.4245
   0.910   0.8250   0.01720   0.01175  -0.1541  0.3358  0.0201  -2.6387   0.0000   0.0000   0.0000   0.4241
   0.920   0.8260   0.01721   0.01176  -0.1540  0.3358  0.0201  -2.6399   0.0000   0.0000   0.0000   0.4238
   0.930   0.8269   0.01723   0.01178  -0.1540  0.3358  0.0201  -2.6410   0.0000   0.0000   0.0000   0.4235
   0.940   0.8279   0.01724   0.01179  -0.1539  0.3358  0.0201  -2.6422   0.0000   0.0000   0.0000   0.4232
   0.950   0.8289   0.01726   0.01181  -0.1539  0.3358  0.0201  -2.6433   0.0000   0.0000   0.0000   0.4229
   0.960   0.8299   0.01727   0.01182  -0.1538  0.3358  0.0201  -2.6445   0.0000   0.0000   0.0000   0.4226
   0.970   0.8308   0.01728   0.01184  -0.1538  0.3358  0.0201  -2.6456   0.0000   0.0000   0.0000   0.4223
   0.980   0.8318   0.01730   0.01185  -0.1538  0.3358  0.0201  -2.6468   0.0000   0.0000   0.0000   0.4220
   0.990   0.8328   0.01731   0.01186  -0.1537  0.3357  0.0201  -2.6479   0.0000   0.0000   0.0000   0.4217
   1.000   0.8338   0.01732   0.01188  -0.1537  0.3357  0.0201  -2.6491   0.0000   0.0000   0.0000   0.4214
   1.010   0.8347   0.01734   0.01189  -0.1536  0.3357  0.0201  -2.6502   0.0000   0.0000   0.0000   0.4211
   1.020   0.8357   0.01735   0.01191  -0.1536  0.3357  0.0202  -2.6514   0.0000   0.0000   0.0000   0.4208
   1.030   0.8367   0.01737   0.01192  -0.1536  0.3357  0.0202  -2.6525   0.0000   0.0000   0.0000   0.4205
   1.040   0.8377   0.01738   0.01193  -0.1535  0.3357  0.0202  -2.6537   0.0000   0.0000   0.0000   0.4202
   1.050   0.8386   0.01739   0.01195  -0.1535  0.3357  0.0202  -2.6548   0.0000   0.0000   0.0000   0.4199
   1.060   0.8396   0.01741   0.01196  -0.1534  0.3357  0.0202  -2.6560   0.0000   0.0000   0.0000   0.4196
   1.070   0.8406   0.01742   0.01198  -0.1534  0.3356  0.0202  -2.6571   0.0000   0.0000   0.0000   0.4193
   1.080   0.8415   0.01744   0.01199  -0.1533  0.3356  0.0202  -2.6582   0.0000   0.0000   0.0000   0.4190
   1.090   0.8425   0.01745   0.01201  -0.1533  0.3356  0.0202  -2.6593   0.0000   0.0000   0.0000   0.4187
   1.100   0.8434   0.01747   0.01203  -0.1532  0.3356  0.0202  -2.6604   0.0000   0.0000   0.0000   0.4184
   1.110   0.8443   0.01748   0.01204  -0.1532  0.3356  0.0202  -2.6615   0.0000   0.0000   0.0000   0.4181
   1.120   0.8452   0.01750   0.01206  -0.1531  0.3356  0.0202  -2.6625   0.0000   0.0000   0.0000   0.4178
   1.130   0.8460   0.01752   0.01208  -0.1531  0.3356  0.0202  -2.6636   0.0000   0.0000   0.0000   0.4175
   1.140   0.8469   0.01754   0.01210  -0.1530  0.3356  0.0202  -2.6646   0.0000   0.0000   0.0000   0.4172
   1.150   0.8477   0.01756   0.01212  -0.1530  0.3355  0.0203  -2.6656   0.0000   0.0000   0.0000   0.4169
   1.160   0.8486   0.01758   0.01214  -0.1529  0.3355  0.0203  -2.6666   0.0000   0.0000   0.0000   0.4167
   1.170   0.8494   0.01760   0.01216  -0.1529  0.3355  0.0203  -2.6676   0.0000   0.0000   0.0000   0.4164
   1.180   0.8502   0.01762   0.01218  -0.1528  0.3355  0.0203  -2.6685   0.0000   0.0000   0.0000   0.4161
   1.190   0.8511   0.01764   0.01220  -0.1527  0.3355  0.0203  -2.6695   0.0000   0.0000   0.0000   0.4158
   1.200   0.8519   0.01766   0.01222  -0.1527  0.3355  0.0203  -2.6705   0.0000   0.0000   0.0000   0.4155
   1.210   0.8527   0.01768   0.01224  -0.1526  0.3355  0.0203  -2.6715   0.0000   0.0000   0.0000   0.4153
   1.220   0.8535   0.01770   0.01226  -0.1526  0.3355  0.0203  -2.6724   0.0000   0.0000   0.0000   0.4150
   1.230   0.8543   0.01772   0.01228  -0.1525  0.3354  0.0203  -2.6734   0.0000   0.0000   0.0000   0.4147
   1.240   0.8552   0.01774   0.01230  -0.1525  0.3354  0.0203  -2.6744   0.0000   0.0000   0.0000   0.4144
   1.250   0.8560   0.01776   0.01232  -0.1524  0.3354  0.0203  -2.6754   0.0000   0.0000   0.0000   0.4141
   1.260   0.8569   0.01778   0.01234  -0.1523  0.3354  0.0203  -2.6764   0.0000   0.0000   0.0000   0.4139
   1.270   0.8577   0.01780   0.01236  -0.1523  0.3354  0.0203  -2.6774   0.0000   0.0000   0.0000   0.4136
   1.280   0.8586   0.01782   0.01238  -0.1522  0.3354  0.0203  -2.6784   0.0000   0.0000   0.0000   0.4133
   1.290   0.8594   0.01783   0.01240  -0.1522  0.3354  0.0204  -2.6794   0.0000   0.0000   0.0000   0.4130
   1.300   0.8603   0.01785   0.01242  -0.1521  0.3354  0.0204  -2.6804   0.0000   0.0000   0.0000   0.4128
   1.310   0.8612   0.01787   0.01244  -0.1521  0.3353  0.0204  -2.6815   0.0000   0.0000   0.0000   0.4125
   1.320   0.8621   0.01789   0.01246  -0.1520  0.3353  0.0204  -2.6825   0.0000   0.0000   0.0000   0.4122
   1.330   0.8629   0.01791   0.01248  -0.1520  0.3353  0.0204  -2.6836   0.0000   0.0000   0.0000   0.4119
   1.340   0.8638   0.01792   0.01250  -0.1519  0.3353  0.0204  -2.6846   0.0000   0.0000   0.0000   0.4116
   1.350   0.8647   0.01794   0.01251  -0.1519  0.3353  0.0204  -2.6857   0.0000   0.0000   0.0000   0.4114
   1.360   0.8656   0.01796   0.01253  -0.1518  0.3353  0.0204  -2.6867   0.0000   0.0000   0.0000   0.4111
   1.370   0.8665   0.01798   0.01255  -0.1518  0.3353  0.0204  -2.6878   0.0000   0.0000   0.0000   0.4108
   1.380   0.8674   0.01799   0.01257  -0.1517  0.3352  0.0204  -2.6889   0.0000   0.0000   0.0000   0.4105
   1.390   0.8684   0.01801   0.01259  -0.1517  0.3352  0.0204  -2.6899   0.0000   0.0000   0.0000   0.4103
   1.400   0.8693   0.01803   0.01260  -0.1516  0.3352  0.0204  -2.6910   0.0000   0.0000   0.0000   0.4100
   1.410   0.8702   0.01805   0.01262  -0.1516  0.3352  0.0204  -2.6921   0.0000   0.0000   0.0000   0.4097
   1.420   0.8711   0.01806   0.01264  -0.1515  0.3352  0.0205  -2.6932   0.0000   0.0000   0.0000   0.4095
   1.430   0.8720   0.01808   0.01265  -0.1515  0.3352  0.0205  -2.6943   0.0000   0.0000   0.0000   0.4092
   1.440   0.8730   0.01810   0.01267  -0.1515  0.3352  0.0205  -2.6954   0.0000   0.0000   0.0000   0.4089
   1.450   0.8739   0.01811   0.01269  -0.1514  0.3352  0.0205  -2.6964   0.0000   0.0000   0.0000   0.4086
   1.460   0.8748   0.01813   0.01271  -0.1514  0.3351  0.0205  -2.6975   0.0000   0.0000   0.0000   0.4084
   1.470   0.8758   0.01814   0.01272  -0.1513  0.3351  0.0205  -2.6986   0.0000   0.0000   0.0000   0.4081
   1.480   0.8767   0.01816   0.01274  -0.1513  0.3351  0.0206  -2.6997   0.0000   0.0000   0.0000   0.4078
   1.490   0.8776   0.01818   0.01276  -0.1512  0.3351  0.0206  -2.7008   0.0000   0.0000   0.0000   0.4076
   1.500   0.8786   0.01819   0.01277  -0.1512  0.3351  0.0206  -2.7019   0.0000   0.0000   0.0000   0.4073
   1.510   0.8795   0.01821   0.01279  -0.1512  0.3351  0.0206  -2.7030   0.0000   0.0000   0.0000   0.4070
   1.520   0.8805   0.01822   0.01281  -0.1511  0.3351  0.0206  -2.7041   0.0000   0.0000   0.0000   0.4067
   1.530   0.8814   0.01824   0.01282  -0.1511  0.3351  0.0207  -2.7053   0.0000   0.0000   0.0000   0.4065
   1.540   0.8823   0.01826   0.01284  -0.1510  0.3351  0.0207  -2.7064   0.0000   0.0000   0.0000   0.4062
   1.550   0.8833   0.01827   0.01286  -0.1510  0.3350  0.0207  -2.7075   0.0000   0.0000   0.0000   0.4059
   1.560   0.8842   0.01829   0.01287  -0.1509  0.3350  0.0208  -2.7086   0.0000   0.0000   0.0000   0.4057
   1.570   0.8852   0.01830   0.01289  -0.1509  0.3350  0.0208  -2.7097   0.0000   0.0000   0.0000   0.4054
   1.580   0.8861   0.01832   0.01291  -0.1509  0.3350  0.0208  -2.7108   0.0000   0.0000   0.0000   0.4051
   1.590   0.8871   0.01834   0.01292  -0.1508  0.3350  0.0209  -2.7119   0.0000   0.0000   0.0000   0.4049
   1.600   0.8880   0.01835   0.01294  -0.1508  0.3350  0.0209  -2.7130   0.0000   0.0000   0.0000   0.4046
   1.610   0.8890   0.01837   0.01295  -0.1507  0.3350  0.0209  -2.7141   0.0000   0.0000   0.0000   0.4044
   1.620   0.8899   0.01838   0.01297  -0.1507  0.3350  0.0210  -2.7152   0.0000   0.0000   0.0000   0.4041
   1.630   0.8909   0.01840   0.01299  -0.1506  0.3349  0.0210  -2.7164   0.0000   0.0000   0.0000   0.4038
   1.640   0.8918   0.01842   0.01300  -0.1506  0.3349  0.0211  -2.7175   0.0000   0.0000   0.0000   0.4036
   1.650   0.8928   0.01843   0.01302  -0.1506  0.3349  0.0211  -2.7186   0.0000   0.0000   0.0000   0.4033
   1.660   0.8937   0.01845   0.01304  -0.1505  0.3349  0.0212  -2.7197   0.0000   0.0000   0.0000   0.4030
   1.670   0.8947   0.01846   0.01305  -0.1505  0.3349  0.0212  -2.7208   0.0000   0.0000   0.0000   0.4028
   1.680   0.8956   0.01848   0.01307  -0.1504  0.3349  0.0213  -2.7219   0.0000   0.0000   0.0000   0.4025
   1.690   0.8966   0.01849   0.01309  -0.1504  0.3349  0.0213  -2.7230   0.0000   0.0000   0.0000   0.4023
   1.700   0.8975   0.01851   0.01310  -0.1503  0.3349  0.0214  -2.7241   0.0000   0.0000   0.0000   0.4020
   1.710   0.8985   0.01853   0.01312  -0.1503  0.3348  0.0214  -2.7253   0.0000   0.0000   0.0000   0.4017
   1.720   0.8994   0.01854   0.01313  -0.1503  0.3348  0.0215  -2.7264   0.0000   0.0000   0.0000   0.4015
   1.730   0.9004   0.01856   0.01315  -0.1502  0.3348  0.0215  -2.7275   0.0000   0.0000   0.0000   0.4012
   1.740   0.9013   0.01857   0.01317  -0.1502  0.3348  0.0216  -2.7286   0.0000   0.0000   0.0000   0.4010
   1.750   0.9023   0.01859   0.01318  -0.1501  0.3348  0.0216  -2.7297   0.0000   0.0000   0.0000   0.4007
   1.760   0.9032   0.01860   0.01320  -0.1501  0.3348  0.0217  -2.7308   0.0000   0.0000   0.0000   0.4005
   1.770   0.9042   0.01862   0.01322  -0.1501  0.3348  0.0217  -2.7319   0.0000   0.0000   0.0000   0.4002
   1.780   0.9051   0.01864   0.01323  -0.1500  0.3348  0.0218  -2.7331   0.0000   0.0000   0.0000   0.4000
   1.790   0.9061   0.01865   0.01325  -0.1500  0.3348  0.0218  -2.7342   0.0000   0.0000   0.0000   0.3997
   1.800   0.9070   0.01867   0.01327  -0.1499  0.3347  0.0219  -2.7353   0.0000   0.0000   0.0000   0.3995
   1.810   0.9080   0.01868   0.01328  -0.1499  0.3347  0.0219  -2.7364   0.0000   0.0000   0.0000   0.3992
   1.820   0.9089   0.01870   0.01330  -0.1499  0.3347  0.0220  -2.7375   0.0000   0.0000   0.0000   0.3989
   1.830   0.9099   0.01872   0.01332  -0.1498  0.3347  0.0220  -2.7386   0.0000   0.0000   0.0000   0.3987
   1.840   0.9108   0.01873   0.01333  -0.1498  0.3347  0.0220  -2.7397   0.0000   0.0000   0.0000   0.3984
   1.850   0.9117   0.01875   0.01335  -0.1497  0.3347  0.0221  -2.7408   0.0000   0.0000   0.0000   0.3982
   1.860   0.9127   0.01877   0.01337  -0.1497  0.3347  0.0221  -2.7419   0.0000   0.0000   0.0000   0.3980
   1.870   0.9136   0.01878   0.01339  -0.1496  0.3347  0.0222  -2.7429   0.0000   0.0000   0.0000   0.3977
   1.880   0.9145   0.01880   0.01341  -0.1496  0.3346  0.0222  -2.7440   0.0000   0.0000   0.0000   0.3975
   1.890   0.9153   0.01882   0.01343  -0.1495  0.3346  0.0223  -2.7450   0.0000   0.0000   0.0000   0.3972
   1.900   0.9162   0.01884   0.01345  -0.1495  0.3346  0.0223  -2.7460   0.0000   0.0000   0.0000   0.3970
   1.910   0.9170   0.01886   0.01347  -0.1494  0.3346  0.0223  -2.7470   0.0000   0.0000   0.0000   0.3967
   1.920   0.9179   0.01889   0.01349  -0.1494  0.3346  0.0224  -2.7480   0.0000   0.0000   0.0000   0.3965
   1.930   0.9187   0.01891   0.01352  -0.1493  0.3346  0.0224  -2.7489   0.0000   0.0000   0.0000   0.3963
   1.940   0.9195   0.01893   0.01354  -0.1493  0.3346  0.0224  -2.7499   0.0000   0.0000   0.0000   0.3960
   1.950   0.9203   0.01895   0.01356  -0.1492  0.3346  0.0225  -2.7508   0.0000   0.0000   0.0000   0.3958
   1.960   0.9211   0.01898   0.01359  -0.1492  0.3346  0.0225  -2.7517   0.0000   0.0000   0.0000   0.3955
   1.970   0.9219   0.01900   0.01361  -0.1491  0.3345  0.0225  -2.7527   0.0000   0.0000   0.0000   0.3953
   1.980   0.9227   0.01902   0.01364  -0.1491  0.3345  0.0226  -2.7536   0.0000   0.0000   0.0000   0.3951
   1.990   0.9235   0.01905   0.01366  -0.1490  0.3345  0.0226  -2.7545   0.0000   0.0000   0.0000   0.3948
   2.000   0.9243   0.01907   0.01368  -0.1489  0.3345  0.0226  -2.7554   0.0000   0.0000   0.0000   0.3946
   2.010   0.9251   0.01909   0.01371  -0.1489  0.3345  0.0226  -2.7564   0.0000   0.0000   0.0000   0.3944
   2.020   0.9259   0.01912   0.01373  -0.1488  0.3345  0.0227  -2.7573   0.0000   0.0000   0.0000   0.3941
   2.030   0.9268   0.01914   0.01375  -0.1488  0.3345  0.0227  -2.7583   0.0000   0.0000   0.0000   0.3939
   2.040   0.9276   0.01916   0.01378  -0.1487  0.3345  0.0227  -2.7592   0.0000   0.0000   0.0000   0.3937
   2.050   0.9284   0.01918   0.01380  -0.1487  0.3344  0.0227  -2.7602   0.0000   0.0000   0.0000   0.3934
   2.060   0.9293   0.01920   0.01382  -0.1486  0.3344  0.0227  -2.7612   0.0000   0.0000   0.0000   0.3932
   2.070   0.9301   0.01922   0.01384  -0.1486  0.3344  0.0228  -2.7622   0.0000   0.0000   0.0000   0.3930
   2.080   0.9310   0.01925   0.01387  -0.1485  0.3344  0.0228  -2.7632   0.0000   0.0000   0.0000   0.3927
   2.090   0.9319   0.01927   0.01389  -0.1485  0.3344  0.0228  -2.7642   0.0000   0.0000   0.0000   0.3925
   2.100   0.9327   0.01929   0.01391  -0.1484  0.3344  0.0228  -2.7652   0.0000   0.0000   0.0000   0.3922
   2.110   0.9336   0.01931   0.01393  -0.1484  0.3344  0.0228  -2.7662   0.0000   0.0000   0.0000   0.3920
   2.120   0.9345   0.01933   0.01395  -0.1483  0.3344  0.0228  -2.7672   0.0000   0.0000   0.0000   0.3918
   2.130   0.9354   0.01935   0.01397  -0.1483  0.3344  0.0228  -2.7683   0.0000   0.0000   0.0000   0.3916
   2.140   0.9363   0.01937   0.01399  -0.1482  0.3344  0.0229  -2.7693   0.0000   0.0000   0.0000   0.3913
   2.150   0.9372   0.01939   0.01401  -0.1482  0.3343  0.0229  -2.7703   0.0000   0.0000   0.0000   0.3911
   2.160   0.9381   0.01941   0.01403  -0.1482  0.3343  0.0229  -2.7714   0.0000   0.0000   0.0000   0.3909
   2.170   0.9390   0.01943   0.01405  -0.1481  0.3343  0.0229  -2.7724   0.0000   0.0000   0.0000   0.3906
   2.180   0.9399   0.01944   0.01407  -0.1481  0.3343  0.0229  -2.7735   0.0000   0.0000   0.0000   0.3904
   2.190   0.9408   0.01946   0.01409  -0.1480  0.3343  0.0229  -2.7745   0.0000   0.0000   0.0000   0.3902
   2.200   0.9417   0.01948   0.01411  -0.1480  0.3343  0.0229  -2.7756   0.0000   0.0000   0.0000   0.3899
   2.210   0.9426   0.01950   0.01413  -0.1479  0.3343  0.0229  -2.7766   0.0000   0.0000   0.0000   0.3897
   2.220   0.9435   0.01952   0.01415  -0.1479  0.3343  0.0229  -2.7777   0.0000   0.0000   0.0000   0.3895
   2.230   0.9444   0.01954   0.01417  -0.1479  0.3343  0.0229  -2.7788   0.0000   0.0000   0.0000   0.3892
   2.240   0.9453   0.01956   0.01419  -0.1478  0.3342  0.0230  -2.7798   0.0000   0.0000   0.0000   0.3890
   2.250   0.9463   0.01958   0.01421  -0.1478  0.3342  0.0230  -2.7809   0.0000   0.0000   0.0000   0.3888
   2.260   0.9472   0.01960   0.01423  -0.1477  0.3342  0.0230  -2.7820   0.0000   0.0000   0.0000   0.3886
   2.270   0.9481   0.01961   0.01425  -0.1477  0.3342  0.0230  -2.7830   0.0000   0.0000   0.0000   0.3883
   2.280   0.9490   0.01963   0.01426  -0.1476  0.3342  0.0230  -2.7841   0.0000   0.0000   0.0000   0.3881
   2.290   0.9500   0.01965   0.01428  -0.1476  0.3342  0.0230  -2.7852   0.0000   0.0000   0.0000   0.3879
   2.300   0.9509   0.01967   0.01430  -0.1476  0.3342  0.0230  -2.7862   0.0000   0.0000   0.0000   0.3876
   2.310   0.9518   0.01969   0.01432  -0.1475  0.3342  0.0230  -2.7873   0.0000   0.0000   0.0000   0.3874
   2.320   0.9528   0.01971   0.01434  -0.1475  0.3342  0.0230  -2.7884   0.0000   0.0000   0.0000   0.3872
   2.330   0.9537   0.01972   0.01436  -0.1474  0.3342  0.0231  -2.7895   0.0000   0.0000   0.0000   0.3870
   2.340   0.9546   0.01974   0.01438  -0.1474  0.3341  0.0231  -2.7906   0.0000   0.0000   0.0000   0.3867
   2.350   0.9556   0.01976   0.01439  -0.1474  0.3341  0.0231  -2.7917   0.0000   0.0000   0.0000   0.3865
   2.360   0.9565   0.01978   0.01441  -0.1473  0.3341  0.0231  -2.7928   0.0000   0.0000   0.0000   0.3863
   2.370   0.9575   0.01980   0.01443  -0.1473  0.3341  0.0231  -2.7939   0.0000   0.0000   0.0000   0.3861
   2.380   0.9584   0.01981   0.01445  -0.1473  0.3341  0.0231  -2.7949   0.0000   0.0000   0.0000   0.3858
   2.390   0.9594   0.01983   0.01447  -0.1472  0.3341  0.0231  -2.7960   0.0000   0.0000   0.0000   0.3856
   2.400   0.9603   0.01985   0.01449  -0.1472  0.3341  0.0231  -2.7971   0.0000   0.0000   0.0000   0.3854
   2.410   0.9612   0.01987   0.01451  -0.1471  0.3341  0.0231  -2.7982   0.0000   0.0000   0.0000   0.3852
   2.420   0.9622   0.01988   0.01452  -0.1471  0.3341  0.0232  -2.7993   0.0000   0.0000   0.0000   0.3850
   2.430   0.9631   0.01990   0.01454  -0.1471  0.3341  0.0232  -2.8004   0.0000   0.0000   0.0000   0.3847
   2.440   0.9641   0.01992   0.01456  -0.1470  0.3341  0.0232  -2.8015   0.0000   0.0000   0.0000   0.3845
   2.450   0.9650   0.01994   0.01458  -0.1470  0.3341  0.0232  -2.8026   0.0000   0.0000   0.0000   0.3843
   2.460   0.9660   0.01996   0.01460  -0.1469  0.3341  0.0232  -2.8037   0.0000   0.0000   0.0000   0.3841
   2.470   0.9669   0.01997   0.01462  -0.1469  0.3341  0.0232  -2.8048   0.0000   0.0000   0.0000   0.3838
   2.480   0.9679   0.01999   0.01463  -0.1469  0.3341  0.0232  -2.8059   0.0000   0.0000   0.0000   0.3836
   2.490   0.9688   0.02001   0.01465  -0.1468  0.3341  0.0232  -2.8070   0.0000   0.0000   0.0000   0.3834
   2.500   0.9698   0.02003   0.01467  -0.1468  0.3340  0.0232  -2.8081   0.0000   0.0000   0.0000   0.3832
   2.510   0.9707   0.02004   0.01469  -0.1468  0.3340  0.0233  -2.8092   0.0000   0.0000   0.0000   0.3830
   2.520   0.9717   0.02006   0.01471  -0.1467  0.3340  0.0233  -2.8103   0.0000   0.0000   0.0000   0.3828
   2.530   0.9726   0.02008   0.01473  -0.1467  0.3340  0.0233  -2.8114   0.0000   0.0000   0.0000   0.3825
   2.540   0.9735   0.02010   0.01475  -0.1466  0.3340  0.0233  -2.8124   0.0000   0.0000   0.0000   0.3823
   2.550   0.9745   0.02012   0.01476  -0.1466  0.3340  0.0233  -2.8135   0.0000   0.0000   0.0000   0.3821
   2.560   0.9754   0.02013   0.01478  -0.1466  0.3340  0.0233  -2.8146   0.0000   0.0000   0.0000   0.3819
   2.570   0.9764   0.02015   0.01480  -0.1465  0.3340  0.0233  -2.8157   0.0000   0.0000   0.0000   0.3817
   2.580   0.9773   0.02017   0.01482  -0.1465  0.3340  0.0233  -2.8168   0.0000   0.0000   0.0000   0.3815
   2.590   0.9782   0.02019   0.01484  -0.1465  0.3340  0.0233  -2.8179   0.0000   0.0000   0.0000   0.3812
   2.600   0.9792   0.02021   0.01486  -0.1464  0.3340  0.0234  -2.8189   0.0000   0.0000   0.0000   0.3810
   2.610   0.9801   0.02023   0.01488  -0.1464  0.3340  0.0234  -2.8200   0.0000   0.0000   0.0000   0.3808
   2.620   0.9809   0.02025   0.01490  -0.1463  0.3340  0.0234  -2.8210   0.0000   0.0000   0.0000   0.3806
   2.630   0.9818   0.02027   0.01493  -0.1463  0.3340  0.0234  -2.8220   0.0000   0.0000   0.0000   0.3804
   2.640   0.9827   0.02030   0.01495  -0.1462  0.3340  0.0234  -2.8229   0.0000   0.0000   0.0000   0.3802
   2.650   0.9835   0.02032   0.01497  -0.1462  0.3340  0.0234  -2.8239   0.0000   0.0000   0.0000   0.3800
   2.660   0.9843   0.02034   0.01500  -0.1461  0.3339  0.0234  -2.8249   0.0000   0.0000   0.0000   0.3798
   2.670   0.9851   0.02037   0.01503  -0.1461  0.3339  0.0234  -2.8259   0.0000   0.0000   0.0000   0.3796
   2.680   0.9859   0.02039   0.01505  -0.1460  0.3339  0.0234  -2.8268   0.0000   0.0000   0.0000   0.3794
   2.690   0.9867   0.02042   0.01508  -0.1460  0.3339  0.0235  -2.8278   0.0000   0.0000   0.0000   0.3792
   2.700   0.9875   0.02045   0.01511  -0.1459  0.3339  0.0235  -2.8287   0.0000   0.0000   0.0000   0.3790
   2.710   0.9883   0.02047   0.01513  -0.1459  0.3339  0.0235  -2.8297   0.0000   0.0000   0.0000   0.3788
   2.720   0.9891   0.02050   0.01516  -0.1458  0.3339  0.0235  -2.8306   0.0000   0.0000   0.0000   0.3786
   2.730   0.9899   0.02052   0.01519  -0.1458  0.3339  0.0235  -2.8315   0.0000   0.0000   0.0000   0.3783
   2.740   0.9906   0.02055   0.01521  -0.1457  0.3339  0.0235  -2.8325   0.0000   0.0000   0.0000   0.3781
   2.750   0.9914   0.02058   0.01524  -0.1457  0.3339  0.0235  -2.8334   0.0000   0.0000   0.0000   0.3779
   2.760   0.9922   0.02060   0.01527  -0.1456  0.3339  0.0235  -2.8344   0.0000   0.0000   0.0000   0.3777
   2.770   0.9930   0.02063   0.01529  -0.1456  0.3339  0.0235  -2.8354   0.0000   0.0000   0.0000   0.3775
   2.780   0.9939   0.02065   0.01532  -0.1455  0.3339  0.0236  -2.8363   0.0000   0.0000   0.0000   0.3773
   2.790   0.9947   0.02068   0.01534  -0.1455  0.3339  0.0236  -2.8373   0.0000   0.0000   0.0000   0.3771
   2.800   0.9955   0.02070   0.01537  -0.1454  0.3339  0.0236  -2.8383   0.0000   0.0000   0.0000   0.3769
   2.810   0.9964   0.02072   0.01539  -0.1454  0.3338  0.0236  -2.8393   0.0000   0.0000   0.0000   0.3767
   2.820   0.9972   0.02075   0.01542  -0.1453  0.3338  0.0236  -2.8404   0.0000   0.0000   0.0000   0.3765
   2.830   0.9981   0.02077   0.01544  -0.1453  0.3338  0.0236  -2.8414   0.0000   0.0000   0.0000   0.3763
   2.840   0.9989   0.02079   0.01546  -0.1452  0.3338  0.0236  -2.8424   0.0000   0.0000   0.0000   0.3761
   2.850   0.9998   0.02081   0.01549  -0.1452  0.3338  0.0236  -2.8435   0.0000   0.0000   0.0000   0.3759
   2.860   1.0007   0.02084   0.01551  -0.1452  0.3338  0.0237  -2.8445   0.0000   0.0000   0.0000   0.3757
   2.870   1.0016   0.02086   0.01553  -0.1451  0.3338  0.0237  -2.8455   0.0000   0.0000   0.0000   0.3755
   2.880   1.0024   0.02088   0.01555  -0.1451  0.3338  0.0237  -2.8466   0.0000   0.0000   0.0000   0.3753
   2.890   1.0033   0.02090   0.01558  -0.1450  0.3338  0.0237  -2.8477   0.0000   0.0000   0.0000   0.3751
   2.900   1.0042   0.02092   0.01560  -0.1450  0.3338  0.0237  -2.8487   0.0000   0.0000   0.0000   0.3749
   2.910   1.0051   0.02094   0.01562  -0.1449  0.3338  0.0237  -2.8498   0.0000   0.0000   0.0000   0.3747
   2.920   1.0060   0.02097   0.01564  -0.1449  0.3338  0.0237  -2.8509   0.0000   0.0000   0.0000   0.3745
   2.930   1.0069   0.02099   0.01567  -0.1449  0.3338  0.0238  -2.8519   0.0000   0.0000   0.0000   0.3743
   2.940   1.0078   0.02101   0.01569  -0.1448  0.3338  0.0238  -2.8530   0.0000   0.0000   0.0000   0.3741
   2.950   1.0087   0.02103   0.01571  -0.1448  0.3338  0.0238  -2.8541   0.0000   0.0000   0.0000   0.3739
   2.960   1.0096   0.02105   0.01573  -0.1447  0.3338  0.0239  -2.8552   0.0000   0.0000   0.0000   0.3737
   2.970   1.0105   0.02107   0.01575  -0.1447  0.3337  0.0239  -2.8562   0.0000   0.0000   0.0000   0.3735
   2.980   1.0114   0.02109   0.01577  -0.1447  0.3337  0.0239  -2.8573   0.0000   0.0000   0.0000   0.3733
   2.990   1.0123   0.02111   0.01579  -0.1446  0.3337  0.0240  -2.8584   0.0000   0.0000   0.0000   0.3731
   3.000   1.0132   0.02113   0.01581  -0.1446  0.3337  0.0240  -2.8595   0.0000   0.0000   0.0000   0.3729
   3.010   1.0141   0.02115   0.01584  -0.1445  0.3337  0.0241  -2.8606   0.0000   0.0000   0.0000   0.3727
   3.020   1.0151   0.02117   0.01586  -0.1445  0.3337  0.0242  -2.8617   0.0000   0.0000   0.0000   0.3725
   3.030   1.0160   0.02119   0.01588  -0.1445  0.3337  0.0242  -2.8628   0.0000   0.0000   0.0000   0.3723
   3.040   1.0169   0.02121   0.01590  -0.1444  0.3337  0.0243  -2.8639   0.0000   0.0000   0.0000   0.3721
   3.050   1.0178   0.02123   0.01592  -0.1444  0.3337  0.0244  -2.8650   0.0000   0.0000   0.0000   0.3719
   3.060   1.0187   0.02125   0.01594  -0.1444  0.3337  0.0244  -2.8661   0.0000   0.0000   0.0000   0.3718
   3.070   1.0196   0.02127   0.01596  -0.1443  0.3337  0.0245  -2.8672   0.0000   0.0000   0.0000   0.3716
   3.080   1.0205   0.02129   0.01598  -0.1443  0.3337  0.0246  -2.8682   0.0000   0.0000   0.0000   0.3714
   3.090   1.0215   0.02131   0.01600  -0.1442  0.3337  0.0246  -2.8693   0.0000   0.0000   0.0000   0.3712
   3.100   1.0224   0.02133   0.01602  -0.1442  0.3337  0.0247  -2.8704   0.0000   0.0000   0.0000   0.3710
   3.110   1.0233   0.02135   0.01604  -0.1442  0.3337  0.0248  -2.8715   0.0000   0.0000   0.0000   0.3708
   3.120   1.0242   0.02137   0.01606  -0.1441  0.3336  0.0249  -2.8726   0.0000   0.0000   0.0000   0.3706
   3.130   1.0251   0.02139   0.01609  -0.1441  0.3336  0.0250  -2.8737   0.0000   0.0000   0.0000   0.3704
   3.140   1.0261   0.02141   0.01611  -0.1441  0.3336  0.0251  -2.8748   0.0000   0.0000   0.0000   0.3702
   3.150   1.0270   0.02143   0.01613  -0.1440  0.3336  0.0251  -2.8759   0.0000   0.0000   0.0000   0.3700
   3.160   1.0279   0.02145   0.01615  -0.1440  0.3336  0.0252  -2.8770   0.0000   0.0000   0.0000   0.3698
   3.170   1.0288   0.02147   0.01617  -0.1439  0.3336  0.0253  -2.8781   0.0000   0.0000   0.0000   0.3696
   3.180   1.0297   0.02149   0.01619  -0.1439  0.3336  0.0254  -2.8792   0.0000   0.0000   0.0000   0.3694
   3.190   1.0307   0.02151   0.01621  -0.1439  0.3336  0.0255  -2.8803   0.0000   0.0000   0.0000   0.3692
   3.200   1.0316   0.02153   0.01623  -0.1438  0.3336  0.0256  -2.8814   0.0000   0.0000   0.0000   0.3691
   3.210   1.0325   0.02155   0.01625  -0.1438  0.3336  0.0257  -2.8825   0.0000   0.0000   0.0000   0.3689
   3.220   1.0334   0.02157   0.01627  -0.1438  0.3336  0.0258  -2.8836   0.0000   0.0000   0.0000   0.3687
   3.230   1.0344   0.02159   0.01629  -0.1437  0.3336  0.0258  -2.8847   0.0000   0.0000   0.0000   0.3685
   3.240   1.0353   0.02161   0.01631  -0.1437  0.3336  0.0259  -2.8858   0.0000   0.0000   0.0000   0.3683
   3.250   1.0362   0.02163   0.01633  -0.1436  0.3336  0.0259  -2.8869   0.0000   0.0000   0.0000   0.3681
   3.260   1.0371   0.02165   0.01635  -0.1436  0.3336  0.0260  -2.8880   0.0000   0.0000   0.0000   0.3679
   3.270   1.0380   0.02167   0.01638  -0.1436  0.3335  0.0260  -2.8891   0.0000   0.0000   0.0000   0.3677
   3.280   1.0390   0.02169   0.01640  -0.1435  0.3335  0.0261  -2.8902   0.0000   0.0000   0.0000   0.3675
   3.290   1.0399   0.02171   0.01642  -0.1435  0.3335  0.0261  -2.8913   0.0000   0.0000   0.0000   0.3674
   3.300   1.0408   0.02173   0.01644  -0.1435  0.3335  0.0262  -2.8924   0.0000   0.0000   0.0000   0.3672
   3.310   1.0417   0.02175   0.01646  -0.1434  0.3335  0.0263  -2.8935   0.0000   0.0000   0.0000   0.3670
   3.320   1.0427   0.02177   0.01648  -0.1434  0.3335  0.0263  -2.8946   0.0000   0.0000   0.0000   0.3668
   3.330   1.0436   0.02179   0.01650  -0.1433  0.3335  0.0264  -2.8957   0.0000   0.0000   0.0000   0.3666
   3.340   1.0445   0.02181   0.01652  -0.1433  0.3335  0.0265  -2.8968   0.0000   0.0000   0.0000   0.3664
   3.350   1.0454   0.02183   0.01654  -0.1433  0.3335  0.0265  -2.8979   0.0000   0.0000   0.0000   0.3662
   3.360   1.0463   0.02185   0.01657  -0.1432  0.3335  0.0266  -2.8990   0.0000   0.0000   0.0000   0.3661
   3.370   1.0472   0.02187   0.01659  -0.1432  0.3335  0.0267  -2.9000   0.0000   0.0000   0.0000   0.3659
   3.380   1.0480   0.02190   0.01662  -0.1432  0.3335  0.0267  -2.9010   0.0000   0.0000   0.0000   0.3657
   3.400   1.0497   0.02195   0.01667  -0.1431  0.3335  0.0268  -2.9030   0.0000   0.0000   0.0000   0.3653
   3.410   1.0505   0.02198   0.01670  -0.1430  0.3335  0.0269  -2.9039   0.0000   0.0000   0.0000   0.3651
   3.420   1.0513   0.02200   0.01672  -0.1430  0.3334  0.0270  -2.9048   0.0000   0.0000   0.0000   0.3650
   3.430   1.0520   0.02203   0.01675  -0.1429  0.3334  0.0271  -2.9057   0.0000   0.0000   0.0000   0.3648
   3.440   1.0528   0.02206   0.01679  -0.1429  0.3334  0.0271  -2.9066   0.0000   0.0000   0.0000   0.3646
   3.450   1.0535   0.02209   0.01682  -0.1428  0.3334  0.0272  -2.9074   0.0000   0.0000   0.0000   0.3644
   3.460   1.0542   0.02212   0.01685  -0.1428  0.3334  0.0272  -2.9083   0.0000   0.0000   0.0000   0.3643
   3.470   1.0550   0.02215   0.01688  -0.1427  0.3334  0.0273  -2.9091   0.0000   0.0000   0.0000   0.3641
   3.480   1.0557   0.02218   0.01691  -0.1426  0.3334  0.0273  -2.9100   0.0000   0.0000   0.0000   0.3639
   3.490   1.0564   0.02221   0.01694  -0.1426  0.3334  0.0274  -2.9108   0.0000   0.0000   0.0000   0.3637
   3.500   1.0572   0.02224   0.01697  -0.1425  0.3334  0.0274  -2.9117   0.0000   0.0000   0.0000   0.3636
   3.510   1.0579   0.02227   0.01700  -0.1425  0.3334  0.0274  -2.9125   0.0000   0.0000   0.0000   0.3634
   3.520   1.0587   0.02230   0.01703  -0.1424  0.3334  0.0275  -2.9134   0.0000   0.0000   0.0000   0.3632
   3.530   1.0595   0.02233   0.01706  -0.1424  0.3334  0.0275  -2.9143   0.0000   0.0000   0.0000   0.3630
   3.540   1.0602   0.02236   0.01709  -0.1423  0.3334  0.0276  -2.9153   0.0000   0.0000   0.0000   0.3629
   3.550   1.0610   0.02238   0.01712  -0.1423  0.3334  0.0276  -2.9162   0.0000   0.0000   0.0000   0.3627
   3.560   1.0618   0.02241   0.01715  -0.1422  0.3333  0.0276  -2.9171   0.0000   0.0000   0.0000   0.3625
   3.570   1.0627   0.02244   0.01717  -0.1422  0.3333  0.0277  -2.9181   0.0000   0.0000   0.0000   0.3623
   3.580   1.0635   0.02246   0.01720  -0.1422  0.3333  0.0277  -2.9190   0.0000   0.0000   0.0000   0.3621
   3.590   1.0643   0.02249   0.01723  -0.1421  0.3333  0.0278  -2.9200   0.0000   0.0000   0.0000   0.3620
   3.600   1.0651   0.02251   0.01725  -0.1421  0.3333  0.0278  -2.9210   0.0000   0.0000   0.0000   0.3618
   3.610   1.0660   0.02254   0.01728  -0.1420  0.3333  0.0279  -2.9220   0.0000   0.0000   0.0000   0.3616
   3.620   1.0668   0.02256   0.01730  -0.1420  0.3333  0.0279  -2.9230   0.0000   0.0000   0.0000   0.3614
   3.630   1.0677   0.02259   0.01733  -0.1419  0.3333  0.0280  -2.9240   0.0000   0.0000   0.0000   0.3613
   3.640   1.0685   0.02261   0.01736  -0.1419  0.3333  0.0281  -2.9250   0.0000   0.0000   0.0000   0.3611
   3.650   1.0694   0.02264   0.01738  -0.1419  0.3333  0.0281  -2.9260   0.0000   0.0000   0.0000   0.3609
   3.660   1.0703   0.02266   0.01741  -0.1418  0.3333  0.0282  -2.9270   0.0000   0.0000   0.0000   0.3608
   3.670   1.0711   0.02268   0.01743  -0.1418  0.3333  0.0283  -2.9280   0.0000   0.0000   0.0000   0.3606
   3.680   1.0720   0.02271   0.01745  -0.1417  0.3333  0.0283  -2.9290   0.0000   0.0000   0.0000   0.3604
   3.690   1.0729   0.02273   0.01748  -0.1417  0.3333  0.0284  -2.9300   0.0000   0.0000   0.0000   0.3602
   3.700   1.0737   0.02276   0.01750  -0.1417  0.3332  0.0285  -2.9311   0.0000   0.0000   0.0000   0.3601
   3.710   1.0746   0.02278   0.01753  -0.1416  0.3332  0.0286  -2.9321   0.0000   0.0000   0.0000   0.3599
   3.720   1.0755   0.02280   0.01755  -0.1416  0.3332  0.0287  -2.9331   0.0000   0.0000   0.0000   0.3597
   3.730   1.0764   0.02282   0.01757  -0.1415  0.3332  0.0288  -2.9342   0.0000   0.0000   0.0000   0.3595
   3.740   1.0773   0.02285   0.01760  -0.1415  0.3332  0.0289  -2.9352   0.0000   0.0000   0.0000   0.3594
   3.750   1.0782   0.02287   0.01762  -0.1415  0.3332  0.0290  -2.9363   0.0000   0.0000   0.0000   0.3592
   3.760   1.0790   0.02289   0.01765  -0.1414  0.3332  0.0291  -2.9373   0.0000   0.0000   0.0000   0.3590
   3.770   1.0799   0.02291   0.01767  -0.1414  0.3332  0.0292  -2.9383   0.0000   0.0000   0.0000   0.3588
   3.780   1.0808   0.02294   0.01769  -0.1414  0.3332  0.0294  -2.9394   0.0000   0.0000   0.0000   0.3587
   3.790   1.0817   0.02296   0.01772  -0.1413  0.3332  0.0296  -2.9404   0.0000   0.0000   0.0000   0.3585
   3.800   1.0826   0.02298   0.01774  -0.1413  0.3332  0.0298  -2.9415   0.0000   0.0000   0.0000   0.3583
   3.810   1.0835   0.02300   0.01776  -0.1412  0.3332  0.0301  -2.9425   0.0000   0.0000   0.0000   0.3582
   3.820   1.0844   0.02303   0.01779  -0.1412  0.3332  0.0305  -2.9436   0.0000   0.0000   0.0000   0.3580
   3.830   1.0853   0.02305   0.01781  -0.1412  0.3332  0.0310  -2.9446   0.0000   0.0000   0.0000   0.3578
   3.840   1.0862   0.02307   0.01783  -0.1411  0.3331  0.0316  -2.9456   0.0000   0.0000   0.0000   0.3577
   3.850   1.0870   0.02309   0.01785  -0.1411  0.3331  0.0325  -2.9467   0.0000   0.0000   0.0000   0.3575
   3.860   1.0879   0.02311   0.01788  -0.1410  0.3331  0.0337  -2.9477   0.0000   0.0000   0.0000   0.3573
   3.870   1.0888   0.02313   0.01790  -0.1410  0.3331  0.0353  -2.9487   0.0000   0.0000   0.0000   0.3571
   3.880   1.0896   0.02315   0.01792  -0.1409  0.3331  0.0375  -2.9497   0.0000   0.0000   0.0000   0.3570
   3.890   1.0904   0.02316   0.01794  -0.1409  0.3331  0.0406  -2.9507   0.0000   0.0000   0.0000   0.3568
   3.900   1.0912   0.02318   0.01796  -0.1408  0.3331  0.0449  -2.9516   0.0000   0.0000   0.0000   0.3566
   3.910   1.0919   0.02319   0.01798  -0.1408  0.3331  0.0506  -2.9525   0.0000   0.0000   0.0000   0.3564
   3.920   1.0926   0.02319   0.01799  -0.1407  0.3331  0.0585  -2.9532   0.0000   0.0000   0.0000   0.3562
   3.930   1.0933   0.02320   0.01802  -0.1406  0.3331  0.0633  -2.9541   0.0000   0.0000   0.0000   0.3561
   3.940   1.0942   0.02322   0.01804  -0.1406  0.3331  0.0635  -2.9552   0.0000   0.0000   0.0000   0.3559
   3.950   1.0951   0.02324   0.01806  -0.1405  0.3331  0.0639  -2.9562   0.0000   0.0000   0.0000   0.3557
   3.960   1.0960   0.02326   0.01809  -0.1405  0.3331  0.0644  -2.9573   0.0000   0.0000   0.0000   0.3556
   3.970   1.0969   0.02328   0.01811  -0.1405  0.3330  0.0649  -2.9583   0.0000   0.0000   0.0000   0.3554
   3.980   1.0978   0.02331   0.01813  -0.1404  0.3330  0.0654  -2.9594   0.0000   0.0000   0.0000   0.3552
   3.990   1.0987   0.02333   0.01816  -0.1404  0.3330  0.0658  -2.9604   0.0000   0.0000   0.0000   0.3551
   4.000   1.0995   0.02335   0.01818  -0.1403  0.3330  0.0662  -2.9615   0.0000   0.0000   0.0000   0.3549
   4.010   1.1004   0.02337   0.01820  -0.1403  0.3330  0.0666  -2.9625   0.0000   0.0000   0.0000   0.3547
   4.020   1.1013   0.02339   0.01823  -0.1403  0.3330  0.0667  -2.9636   0.0000   0.0000   0.0000   0.3546
   4.030   1.1023   0.02342   0.01825  -0.1402  0.3330  0.0669  -2.9646   0.0000   0.0000   0.0000   0.3544
   4.040   1.1032   0.02344   0.01827  -0.1402  0.3330  0.0671  -2.9657   0.0000   0.0000   0.0000   0.3542
   4.050   1.1041   0.02346   0.01830  -0.1402  0.3330  0.0673  -2.9668   0.0000   0.0000   0.0000   0.3541
   4.060   1.1050   0.02348   0.01832  -0.1401  0.3330  0.0675  -2.9678   0.0000   0.0000   0.0000   0.3539
   4.070   1.1059   0.02350   0.01835  -0.1401  0.3330  0.0677  -2.9689   0.0000   0.0000   0.0000   0.3538
   4.080   1.1068   0.02353   0.01837  -0.1401  0.3330  0.0678  -2.9699   0.0000   0.0000   0.0000   0.3536
   4.090   1.1077   0.02355   0.01839  -0.1400  0.3330  0.0679  -2.9710   0.0000   0.0000   0.0000   0.3534
   4.100   1.1086   0.02357   0.01842  -0.1400  0.3330  0.0681  -2.9721   0.0000   0.0000   0.0000   0.3533
   4.110   1.1095   0.02360   0.01844  -0.1400  0.3329  0.0682  -2.9731   0.0000   0.0000   0.0000   0.3531
   4.120   1.1105   0.02362   0.01846  -0.1399  0.3329  0.0683  -2.9742   0.0000   0.0000   0.0000   0.3529
   4.130   1.1114   0.02364   0.01849  -0.1399  0.3329  0.0684  -2.9753   0.0000   0.0000   0.0000   0.3528
   4.140   1.1123   0.02366   0.01851  -0.1399  0.3329  0.0685  -2.9763   0.0000   0.0000   0.0000   0.3526
   4.150   1.1132   0.02369   0.01854  -0.1398  0.3329  0.0685  -2.9774   0.0000   0.0000   0.0000   0.3525
   4.160   1.1141   0.02371   0.01856  -0.1398  0.3329  0.0686  -2.9784   0.0000   0.0000   0.0000   0.3523
   4.170   1.1150   0.02373   0.01858  -0.1398  0.3329  0.0687  -2.9795   0.0000   0.0000   0.0000   0.3521
   4.180   1.1158   0.02376   0.01861  -0.1397  0.3329  0.0688  -2.9805   0.0000   0.0000   0.0000   0.3520
   4.190   1.1167   0.02379   0.01864  -0.1397  0.3329  0.0689  -2.9814   0.0000   0.0000   0.0000   0.3518
   4.200   1.1175   0.02381   0.01867  -0.1396  0.3329  0.0690  -2.9824   0.0000   0.0000   0.0000   0.3517
   4.210   1.1183   0.02384   0.01870  -0.1396  0.3329  0.0691  -2.9833   0.0000   0.0000   0.0000   0.3515
   4.220   1.1190   0.02387   0.01873  -0.1396  0.3329  0.0691  -2.9841   0.0000   0.0000   0.0000   0.3514
   4.230   1.1198   0.02391   0.01876  -0.1395  0.3329  0.0692  -2.9849   0.0000   0.0000   0.0000   0.3512
   4.240   1.1205   0.02394   0.01880  -0.1395  0.3328  0.0693  -2.9857   0.0000   0.0000   0.0000   0.3510
   4.250   1.1212   0.02397   0.01883  -0.1394  0.3328  0.0693  -2.9865   0.0000   0.0000   0.0000   0.3509
   4.260   1.1219   0.02401   0.01887  -0.1393  0.3328  0.0694  -2.9873   0.0000   0.0000   0.0000   0.3507
   4.270   1.1225   0.02404   0.01890  -0.1393  0.3328  0.0694  -2.9880   0.0000   0.0000   0.0000   0.3506
   4.280   1.1232   0.02408   0.01894  -0.1392  0.3328  0.0694  -2.9888   0.0000   0.0000   0.0000   0.3504
   4.290   1.1239   0.02411   0.01898  -0.1392  0.3328  0.0694  -2.9895   0.0000   0.0000   0.0000   0.3503
   4.300   1.1246   0.02415   0.01901  -0.1391  0.3328  0.0695  -2.9902   0.0000   0.0000   0.0000   0.3501
   4.310   1.1252   0.02418   0.01905  -0.1391  0.3328  0.0695  -2.9910   0.0000   0.0000   0.0000   0.3500
   4.320   1.1259   0.02422   0.01909  -0.1390  0.3328  0.0695  -2.9918   0.0000   0.0000   0.0000   0.3498
   4.330   1.1267   0.02425   0.01912  -0.1390  0.3327  0.0695  -2.9926   0.0000   0.0000   0.0000   0.3497
   4.340   1.1274   0.02428   0.01915  -0.1389  0.3327  0.0695  -2.9934   0.0000   0.0000   0.0000   0.3495
   4.350   1.1281   0.02432   0.01919  -0.1389  0.3327  0.0695  -2.9942   0.0000   0.0000   0.0000   0.3494
   4.360   1.1289   0.02435   0.01922  -0.1388  0.3327  0.0695  -2.9951   0.0000   0.0000   0.0000   0.3492
   4.370   1.1297   0.02438   0.01925  -0.1388  0.3327  0.0696  -2.9960   0.0000   0.0000   0.0000   0.3491
   4.380   1.1304   0.02441   0.01928  -0.1387  0.3327  0.0696  -2.9968   0.0000   0.0000   0.0000   0.3489
   4.390   1.1312   0.02444   0.01931  -0.1387  0.3327  0.0696  -2.9977   0.0000   0.0000   0.0000   0.3487
   4.400   1.1320   0.02447   0.01934  -0.1387  0.3326  0.0696  -2.9986   0.0000   0.0000   0.0000   0.3486
   4.410   1.1328   0.02450   0.01937  -0.1386  0.3326  0.0696  -2.9995   0.0000   0.0000   0.0000   0.3484
   4.420   1.1336   0.02453   0.01940  -0.1386  0.3326  0.0696  -3.0004   0.0000   0.0000   0.0000   0.3483
   4.430   1.1344   0.02456   0.01943  -0.1385  0.3326  0.0697  -3.0014   0.0000   0.0000   0.0000   0.3481
   4.440   1.1352   0.02458   0.01946  -0.1385  0.3326  0.0697  -3.0023   0.0000   0.0000   0.0000   0.3480
   4.450   1.1361   0.02461   0.01949  -0.1385  0.3326  0.0697  -3.0032   0.0000   0.0000   0.0000   0.3478
   4.460   1.1369   0.02464   0.01952  -0.1384  0.3326  0.0697  -3.0042   0.0000   0.0000   0.0000   0.3477
   4.470   1.1377   0.02467   0.01955  -0.1384  0.3325  0.0697  -3.0051   0.0000   0.0000   0.0000   0.3475
   4.480   1.1385   0.02470   0.01958  -0.1383  0.3325  0.0697  -3.0061   0.0000   0.0000   0.0000   0.3474
   4.490   1.1394   0.02472   0.01960  -0.1383  0.3325  0.0697  -3.0070   0.0000   0.0000   0.0000   0.3472
   4.500   1.1402   0.02475   0.01963  -0.1383  0.3325  0.0698  -3.0080   0.0000   0.0000   0.0000   0.3471
   4.510   1.1411   0.02478   0.01966  -0.1382  0.3325  0.0698  -3.0089   0.0000   0.0000   0.0000   0.3469
   4.520   1.1419   0.02480   0.01969  -0.1382  0.3324  0.0698  -3.0099   0.0000   0.0000   0.0000   0.3468
   4.530   1.1427   0.02483   0.01972  -0.1381  0.3324  0.0698  -3.0109   0.0000   0.0000   0.0000   0.3466
   4.540   1.1436   0.02486   0.01974  -0.1381  0.3324  0.0698  -3.0118   0.0000   0.0000   0.0000   0.3465
   4.550   1.1444   0.02488   0.01977  -0.1381  0.3324  0.0699  -3.0128   0.0000   0.0000   0.0000   0.3463
   4.560   1.1453   0.02491   0.01980  -0.1380  0.3324  0.0699  -3.0138   0.0000   0.0000   0.0000   0.3462
   4.570   1.1462   0.02494   0.01982  -0.1380  0.3323  0.0699  -3.0148   0.0000   0.0000   0.0000   0.3460
   4.580   1.1470   0.02496   0.01985  -0.1380  0.3323  0.0699  -3.0157   0.0000   0.0000   0.0000   0.3459
   4.590   1.1479   0.02499   0.01988  -0.1379  0.3323  0.0699  -3.0167   0.0000   0.0000   0.0000   0.3457
   4.600   1.1487   0.02502   0.01991  -0.1379  0.3323  0.0700  -3.0177   0.0000   0.0000   0.0000   0.3456
   4.610   1.1496   0.02504   0.01993  -0.1379  0.3323  0.0700  -3.0187   0.0000   0.0000   0.0000   0.3454
   4.620   1.1504   0.02507   0.01996  -0.1378  0.3322  0.0700  -3.0197   0.0000   0.0000   0.0000   0.3453
   4.630   1.1513   0.02509   0.01999  -0.1378  0.3322  0.0700  -3.0206   0.0000   0.0000   0.0000   0.3451
   4.640   1.1521   0.02512   0.02001  -0.1377  0.3322  0.0701  -3.0216   0.0000   0.0000   0.0000   0.3450
   4.650   1.1530   0.02515   0.02004  -0.1377  0.3322  0.0701  -3.0226   0.0000   0.0000   0.0000   0.3448
   4.660   1.1539   0.02517   0.02007  -0.1377  0.3322  0.0701  -3.0236   0.0000   0.0000   0.0000   0.3447
   4.670   1.1547   0.02520   0.02009  -0.1376  0.3321  0.0701  -3.0246   0.0000   0.0000   0.0000   0.3445
   4.680   1.1556   0.02522   0.02012  -0.1376  0.3321  0.0701  -3.0255   0.0000   0.0000   0.0000   0.3444
   4.690   1.1564   0.02525   0.02015  -0.1376  0.3321  0.0702  -3.0265   0.0000   0.0000   0.0000   0.3443
   4.700   1.1573   0.02528   0.02017  -0.1375  0.3321  0.0702  -3.0275   0.0000   0.0000   0.0000   0.3441
   4.710   1.1582   0.02530   0.02020  -0.1375  0.3320  0.0702  -3.0285   0.0000   0.0000   0.0000   0.3440
   4.720   1.1590   0.02533   0.02023  -0.1375  0.3320  0.0702  -3.0295   0.0000   0.0000   0.0000   0.3438
   4.730   1.1599   0.02535   0.02026  -0.1374  0.3320  0.0702  -3.0305   0.0000   0.0000   0.0000   0.3437
   4.740   1.1608   0.02538   0.02028  -0.1374  0.3320  0.0703  -3.0315   0.0000   0.0000   0.0000   0.3435
   4.750   1.1616   0.02541   0.02031  -0.1374  0.3319  0.0703  -3.0325   0.0000   0.0000   0.0000   0.3434
   4.760   1.1625   0.02543   0.02034  -0.1373  0.3319  0.0703  -3.0335   0.0000   0.0000   0.0000   0.3432
   4.770   1.1634   0.02546   0.02036  -0.1373  0.3319  0.0703  -3.0345   0.0000   0.0000   0.0000   0.3431
   4.780   1.1642   0.02548   0.02039  -0.1373  0.3319  0.0704  -3.0355   0.0000   0.0000   0.0000   0.3429
   4.790   1.1651   0.02551   0.02042  -0.1372  0.3318  0.0704  -3.0364   0.0000   0.0000   0.0000   0.3428
   4.800   1.1660   0.02554   0.02044  -0.1372  0.3318  0.0704  -3.0374   0.0000   0.0000   0.0000   0.3427
   4.810   1.1668   0.02556   0.02047  -0.1372  0.3318  0.0704  -3.0384   0.0000   0.0000   0.0000   0.3425
   4.820   1.1677   0.02559   0.02050  -0.1371  0.3317  0.0704  -3.0394   0.0000   0.0000   0.0000   0.3424
   4.830   1.1685   0.02562   0.02053  -0.1371  0.3317  0.0704  -3.0404   0.0000   0.0000   0.0000   0.3422
   4.840   1.1694   0.02564   0.02055  -0.1371  0.3317  0.0705  -3.0414   0.0000   0.0000   0.0000   0.3421
   4.850   1.1703   0.02567   0.02058  -0.1370  0.3317  0.0705  -3.0423   0.0000   0.0000   0.0000   0.3419
   4.860   1.1711   0.02570   0.02061  -0.1370  0.3316  0.0705  -3.0433   0.0000   0.0000   0.0000   0.3418
   4.870   1.1720   0.02572   0.02064  -0.1369  0.3316  0.0705  -3.0443   0.0000   0.0000   0.0000   0.3417
   4.880   1.1728   0.02575   0.02066  -0.1369  0.3316  0.0705  -3.0453   0.0000   0.0000   0.0000   0.3415
   4.890   1.1737   0.02578   0.02069  -0.1369  0.3315  0.0706  -3.0462   0.0000   0.0000   0.0000   0.3414
   4.900   1.1745   0.02580   0.02072  -0.1368  0.3315  0.0706  -3.0472   0.0000   0.0000   0.0000   0.3412
   4.910   1.1754   0.02583   0.02075  -0.1368  0.3315  0.0706  -3.0482   0.0000   0.0000   0.0000   0.3411
   4.920   1.1762   0.02586   0.02077  -0.1368  0.3314  0.0706  -3.0491   0.0000   0.0000   0.0000   0.3409
   4.930   1.1771   0.02588   0.02080  -0.1367  0.3314  0.0706  -3.0501   0.0000   0.0000   0.0000   0.3408
   4.940   1.1779   0.02591   0.02083  -0.1367  0.3314  0.0707  -3.0510   0.0000   0.0000   0.0000   0.3407
   4.950   1.1788   0.02594   0.02086  -0.1367  0.3314  0.0707  -3.0520   0.0000   0.0000   0.0000   0.3405
   4.960   1.1796   0.02597   0.02089  -0.1366  0.3313  0.0707  -3.0529   0.0000   0.0000   0.0000   0.3404
   4.970   1.1804   0.02600   0.02092  -0.1366  0.3313  0.0707  -3.0538   0.0000   0.0000   0.0000   0.3402
   4.980   1.1812   0.02603   0.02095  -0.1365  0.3313  0.0707  -3.0547   0.0000   0.0000   0.0000   0.3401
   4.990   1.1819   0.02606   0.02099  -0.1365  0.3312  0.0708  -3.0555   0.0000   0.0000   0.0000   0.3400
   5.000   1.1826   0.02610   0.02102  -0.1365  0.3312  0.0708  -3.0562   0.0000   0.0000   0.0000   0.3398
   5.010   1.1832   0.02613   0.02106  -0.1364  0.3312  0.0708  -3.0569   0.0000   0.0000   0.0000   0.3397
   5.020   1.1839   0.02617   0.02110  -0.1363  0.3311  0.0708  -3.0576   0.0000   0.0000   0.0000   0.3396
   5.030   1.1845   0.02621   0.02114  -0.1363  0.3311  0.0708  -3.0582   0.0000   0.0000   0.0000   0.3394
   5.040   1.1850   0.02626   0.02118  -0.1362  0.3310  0.0709  -3.0588   0.0000   0.0000   0.0000   0.3393
   5.050   1.1856   0.02630   0.02123  -0.1362  0.3310  0.0709  -3.0594   0.0000   0.0000   0.0000   0.3391
   5.060   1.1862   0.02634   0.02127  -0.1361  0.3310  0.0709  -3.0600   0.0000   0.0000   0.0000   0.3390
   5.070   1.1867   0.02638   0.02132  -0.1360  0.3309  0.0710  -3.0605   0.0000   0.0000   0.0000   0.3389
   5.080   1.1873   0.02643   0.02136  -0.1360  0.3309  0.0710  -3.0611   0.0000   0.0000   0.0000   0.3387
   5.090   1.1879   0.02647   0.02140  -0.1359  0.3309  0.0710  -3.0617   0.0000   0.0000   0.0000   0.3386
   5.100   1.1885   0.02651   0.02144  -0.1359  0.3308  0.0711  -3.0623   0.0000   0.0000   0.0000   0.3385
   5.110   1.1891   0.02655   0.02148  -0.1358  0.3308  0.0711  -3.0630   0.0000   0.0000   0.0000   0.3383
   5.120   1.1898   0.02659   0.02152  -0.1358  0.3307  0.0711  -3.0637   0.0000   0.0000   0.0000   0.3382
   5.130   1.1904   0.02662   0.02156  -0.1357  0.3307  0.0712  -3.0644   0.0000   0.0000   0.0000   0.3381
   5.140   1.1911   0.02666   0.02160  -0.1357  0.3307  0.0712  -3.0651   0.0000   0.0000   0.0000   0.3379
   5.150   1.1918   0.02670   0.02164  -0.1356  0.3306  0.0713  -3.0658   0.0000   0.0000   0.0000   0.3378
   5.160   1.1925   0.02673   0.02167  -0.1356  0.3306  0.0713  -3.0666   0.0000   0.0000   0.0000   0.3377
   5.170   1.1932   0.02677   0.02171  -0.1355  0.3306  0.0713  -3.0674   0.0000   0.0000   0.0000   0.3375
   5.180   1.1939   0.02680   0.02174  -0.1355  0.3305  0.0714  -3.0681   0.0000   0.0000   0.0000   0.3374
   5.190   1.1947   0.02683   0.02178  -0.1354  0.3305  0.0714  -3.0689   0.0000   0.0000   0.0000   0.3373
   5.200   1.1954   0.02687   0.02181  -0.1354  0.3305  0.0714  -3.0697   0.0000   0.0000   0.0000   0.3371
   5.210   1.1962   0.02690   0.02185  -0.1354  0.3304  0.0715  -3.0706   0.0000   0.0000   0.0000   0.3370
   5.220   1.1969   0.02693   0.02188  -0.1353  0.3304  0.0715  -3.0714   0.0000   0.0000   0.0000   0.3368
   5.230   1.1977   0.02697   0.02191  -0.1353  0.3304  0.0716  -3.0722   0.0000   0.0000   0.0000   0.3367
   5.240   1.1984   0.02700   0.02195  -0.1352  0.3303  0.0716  -3.0731   0.0000   0.0000   0.0000   0.3366
   5.250   1.1992   0.02703   0.02198  -0.1352  0.3303  0.0716  -3.0739   0.0000   0.0000   0.0000   0.3364
   5.260   1.2000   0.02706   0.02201  -0.1351  0.3303  0.0717  -3.0747   0.0000   0.0000   0.0000   0.3363
   5.270   1.2007   0.02709   0.02204  -0.1351  0.3302  0.0717  -3.0756   0.0000   0.0000   0.0000   0.3362
   5.280   1.2015   0.02712   0.02208  -0.1351  0.3302  0.0718  -3.0765   0.0000   0.0000   0.0000   0.3360
   5.290   1.2023   0.02715   0.02211  -0.1350  0.3302  0.0718  -3.0773   0.0000   0.0000   0.0000   0.3359
   5.300   1.2031   0.02719   0.02214  -0.1350  0.3301  0.0719  -3.0782   0.0000   0.0000   0.0000   0.3358
   5.310   1.2039   0.02722   0.02217  -0.1350  0.3301  0.0719  -3.0791   0.0000   0.0000   0.0000   0.3356
   5.320   1.2047   0.02725   0.02220  -0.1349  0.3301  0.0720  -3.0800   0.0000   0.0000   0.0000   0.3355
   5.330   1.2055   0.02728   0.02223  -0.1349  0.3300  0.0721  -3.0809   0.0000   0.0000   0.0000   0.3354
   5.340   1.2063   0.02731   0.02226  -0.1348  0.3300  0.0721  -3.0818   0.0000   0.0000   0.0000   0.3352
   5.350   1.2071   0.02734   0.02230  -0.1348  0.3300  0.0722  -3.0827   0.0000   0.0000   0.0000   0.3351
   5.360   1.2080   0.02737   0.02233  -0.1348  0.3299  0.0722  -3.0836   0.0000   0.0000   0.0000   0.3350
   5.370   1.2088   0.02740   0.02236  -0.1347  0.3299  0.0723  -3.0845   0.0000   0.0000   0.0000   0.3348
   5.380   1.2096   0.02743   0.02239  -0.1347  0.3299  0.0723  -3.0854   0.0000   0.0000   0.0000   0.3347
   5.390   1.2104   0.02746   0.02242  -0.1347  0.3299  0.0724  -3.0863   0.0000   0.0000   0.0000   0.3346
   5.400   1.2113   0.02749   0.02245  -0.1346  0.3298  0.0724  -3.0872   0.0000   0.0000   0.0000   0.3345
   5.410   1.2121   0.02752   0.02248  -0.1346  0.3298  0.0725  -3.0881   0.0000   0.0000   0.0000   0.3343
   5.420   1.2129   0.02755   0.02251  -0.1346  0.3298  0.0725  -3.0890   0.0000   0.0000   0.0000   0.3342
   5.430   1.2137   0.02757   0.02254  -0.1345  0.3298  0.0726  -3.0900   0.0000   0.0000   0.0000   0.3341
   5.440   1.2146   0.02760   0.02257  -0.1345  0.3297  0.0727  -3.0909   0.0000   0.0000   0.0000   0.3339
   5.450   1.2154   0.02763   0.02260  -0.1345  0.3297  0.0727  -3.0918   0.0000   0.0000   0.0000   0.3338
   5.460   1.2163   0.02766   0.02263  -0.1344  0.3297  0.0728  -3.0927   0.0000   0.0000   0.0000   0.3337
   5.470   1.2171   0.02769   0.02266  -0.1344  0.3297  0.0728  -3.0936   0.0000   0.0000   0.0000   0.3335
   5.480   1.2179   0.02772   0.02269  -0.1344  0.3297  0.0729  -3.0946   0.0000   0.0000   0.0000   0.3334
   5.490   1.2188   0.02775   0.02272  -0.1343  0.3296  0.0729  -3.0955   0.0000   0.0000   0.0000   0.3333
   5.500   1.2196   0.02778   0.02275  -0.1343  0.3296  0.0730  -3.0964   0.0000   0.0000   0.0000   0.3332
   5.510   1.2205   0.02781   0.02278  -0.1343  0.3296  0.0730  -3.0974   0.0000   0.0000   0.0000   0.3330
   5.520   1.2213   0.02784   0.02281  -0.1342  0.3296  0.0730  -3.0983   0.0000   0.0000   0.0000   0.3329
   5.530   1.2222   0.02786   0.02284  -0.1342  0.3296  0.0731  -3.0992   0.0000   0.0000   0.0000   0.3328
   5.540   1.2230   0.02789   0.02287  -0.1342  0.3296  0.0731  -3.1002   0.0000   0.0000   0.0000   0.3326
   5.550   1.2239   0.02792   0.02290  -0.1341  0.3296  0.0732  -3.1011   0.0000   0.0000   0.0000   0.3325
   5.560   1.2247   0.02795   0.02293  -0.1341  0.3295  0.0732  -3.1020   0.0000   0.0000   0.0000   0.3324
   5.570   1.2256   0.02798   0.02296  -0.1341  0.3295  0.0733  -3.1030   0.0000   0.0000   0.0000   0.3322
   5.580   1.2264   0.02801   0.02299  -0.1340  0.3295  0.0733  -3.1039   0.0000   0.0000   0.0000   0.3321
   5.590   1.2272   0.02804   0.02302  -0.1340  0.3295  0.0734  -3.1048   0.0000   0.0000   0.0000   0.3320
   5.600   1.2281   0.02807   0.02305  -0.1340  0.3295  0.0734  -3.1057   0.0000   0.0000   0.0000   0.3319
   5.610   1.2289   0.02810   0.02308  -0.1340  0.3295  0.0734  -3.1067   0.0000   0.0000   0.0000   0.3317
   5.620   1.2298   0.02813   0.02311  -0.1339  0.3295  0.0735  -3.1076   0.0000   0.0000   0.0000   0.3316
   5.630   1.2306   0.02815   0.02314  -0.1339  0.3294  0.0735  -3.1085   0.0000   0.0000   0.0000   0.3315
   5.640   1.2314   0.02818   0.02317  -0.1339  0.3294  0.0735  -3.1094   0.0000   0.0000   0.0000   0.3314
   5.650   1.2323   0.02821   0.02320  -0.1338  0.3294  0.0736  -3.1103   0.0000   0.0000   0.0000   0.3312
   5.660   1.2331   0.02824   0.02323  -0.1338  0.3294  0.0736  -3.1112   0.0000   0.0000   0.0000   0.3311
   5.670   1.2339   0.02827   0.02326  -0.1338  0.3294  0.0737  -3.1121   0.0000   0.0000   0.0000   0.3310
   5.680   1.2348   0.02830   0.02329  -0.1337  0.3294  0.0737  -3.1131   0.0000   0.0000   0.0000   0.3309
   5.690   1.2356   0.02833   0.02332  -0.1337  0.3293  0.0737  -3.1139   0.0000   0.0000   0.0000   0.3307
   5.700   1.2364   0.02837   0.02336  -0.1337  0.3293  0.0738  -3.1148   0.0000   0.0000   0.0000   0.3306
   5.710   1.2371   0.02840   0.02339  -0.1336  0.3293  0.0738  -3.1155   0.0000   0.0000   0.0000   0.3305
   5.720   1.2378   0.02844   0.02343  -0.1336  0.3293  0.0738  -3.1163   0.0000   0.0000   0.0000   0.3303
   5.730   1.2385   0.02848   0.02347  -0.1335  0.3293  0.0739  -3.1170   0.0000   0.0000   0.0000   0.3302
   5.740   1.2391   0.02852   0.02351  -0.1335  0.3293  0.0739  -3.1176   0.0000   0.0000   0.0000   0.3301
   5.750   1.2397   0.02856   0.02356  -0.1334  0.3293  0.0739  -3.1182   0.0000   0.0000   0.0000   0.3300
   5.760   1.2403   0.02860   0.02360  -0.1334  0.3292  0.0740  -3.1187   0.0000   0.0000   0.0000   0.3299
   5.770   1.2409   0.02865   0.02365  -0.1333  0.3292  0.0740  -3.1192   0.0000   0.0000   0.0000   0.3297
   5.780   1.2414   0.02869   0.02370  -0.1333  0.3292  0.0740  -3.1197   0.0000   0.0000   0.0000   0.3296
   5.790   1.2420   0.02874   0.02374  -0.1332  0.3292  0.0741  -3.1202   0.0000   0.0000   0.0000   0.3295
   5.800   1.2425   0.02879   0.02379  -0.1331  0.3292  0.0741  -3.1207   0.0000   0.0000   0.0000   0.3294
   5.810   1.2431   0.02883   0.02384  -0.1331  0.3292  0.0741  -3.1212   0.0000   0.0000   0.0000   0.3292
   5.820   1.2437   0.02888   0.02388  -0.1330  0.3291  0.0741  -3.1218   0.0000   0.0000   0.0000   0.3291
   5.830   1.2443   0.02892   0.02392  -0.1330  0.3291  0.0742  -3.1224   0.0000   0.0000   0.0000   0.3290
   5.840   1.2449   0.02896   0.02397  -0.1329  0.3291  0.0742  -3.1230   0.0000   0.0000   0.0000   0.3289
   5.850   1.2455   0.02900   0.02401  -0.1329  0.3291  0.0742  -3.1236   0.0000   0.0000   0.0000   0.3288
   5.860   1.2462   0.02904   0.02405  -0.1329  0.3291  0.0743  -3.1243   0.0000   0.0000   0.0000   0.3286
   5.870   1.2469   0.02908   0.02409  -0.1328  0.3291  0.0743  -3.1250   0.0000   0.0000   0.0000   0.3285
   5.880   1.2476   0.02912   0.02413  -0.1328  0.3290  0.0743  -3.1257   0.0000   0.0000   0.0000   0.3284
   5.890   1.2483   0.02915   0.02417  -0.1327  0.3290  0.0743  -3.1264   0.0000   0.0000   0.0000   0.3283
   5.900   1.2490   0.02919   0.02421  -0.1327  0.3290  0.0743  -3.1271   0.0000   0.0000   0.0000   0.3282
   5.910   1.2497   0.02923   0.02424  -0.1326  0.3290  0.0744  -3.1278   0.0000   0.0000   0.0000   0.3280
   5.920   1.2504   0.02926   0.02428  -0.1326  0.3290  0.0744  -3.1286   0.0000   0.0000   0.0000   0.3279
   5.930   1.2512   0.02930   0.02432  -0.1326  0.3290  0.0744  -3.1294   0.0000   0.0000   0.0000   0.3278
   5.940   1.2519   0.02933   0.02435  -0.1325  0.3289  0.0744  -3.1302   0.0000   0.0000   0.0000   0.3277
   5.950   1.2527   0.02937   0.02439  -0.1325  0.3289  0.0744  -3.1310   0.0000   0.0000   0.0000   0.3275
   5.960   1.2535   0.02940   0.02442  -0.1325  0.3289  0.0745  -3.1318   0.0000   0.0000   0.0000   0.3274
   5.970   1.2542   0.02944   0.02446  -0.1324  0.3289  0.0745  -3.1326   0.0000   0.0000   0.0000   0.3273
   5.980   1.2550   0.02947   0.02449  -0.1324  0.3289  0.0745  -3.1334   0.0000   0.0000   0.0000   0.3272
   5.990   1.2558   0.02951   0.02453  -0.1323  0.3289  0.0745  -3.1342   0.0000   0.0000   0.0000   0.3271
   6.000   1.2566   0.02954   0.02456  -0.1323  0.3288  0.0745  -3.1350   0.0000   0.0000   0.0000   0.3269
   6.010   1.2574   0.02957   0.02460  -0.1323  0.3288  0.0746  -3.1358   0.0000   0.0000   0.0000   0.3268
   6.020   1.2582   0.02961   0.02463  -0.1322  0.3288  0.0746  -3.1367   0.0000   0.0000   0.0000   0.3267
   6.030   1.2590   0.02964   0.02467  -0.1322  0.3288  0.0746  -3.1375   0.0000   0.0000   0.0000   0.3266
   6.040   1.2597   0.02967   0.02470  -0.1322  0.3288  0.0746  -3.1384   0.0000   0.0000   0.0000   0.3265
   6.050   1.2605   0.02970   0.02473  -0.1321  0.3288  0.0747  -3.1392   0.0000   0.0000   0.0000   0.3263
   6.060   1.2613   0.02974   0.02477  -0.1321  0.3287  0.0747  -3.1400   0.0000   0.0000   0.0000   0.3262
   6.070   1.2621   0.02977   0.02480  -0.1321  0.3287  0.0748  -3.1409   0.0000   0.0000   0.0000   0.3261
   6.080   1.2629   0.02980   0.02483  -0.1320  0.3287  0.0748  -3.1417   0.0000   0.0000   0.0000   0.3260
   6.090   1.2637   0.02983   0.02487  -0.1320  0.3287  0.0748  -3.1426   0.0000   0.0000   0.0000   0.3259
   6.100   1.2645   0.02987   0.02490  -0.1320  0.3287  0.0748  -3.1434   0.0000   0.0000   0.0000   0.3258
   6.110   1.2654   0.02990   0.02493  -0.1319  0.3287  0.0749  -3.1443   0.0000   0.0000   0.0000   0.3256
   6.120   1.2662   0.02993   0.02497  -0.1319  0.3286  0.0749  -3.1451   0.0000   0.0000   0.0000   0.3255
   6.130   1.2670   0.02996   0.02500  -0.1319  0.3286  0.0749  -3.1460   0.0000   0.0000   0.0000   0.3254
   6.140   1.2678   0.03000   0.02503  -0.1319  0.3286  0.0749  -3.1468   0.0000   0.0000   0.0000   0.3253
   6.150   1.2686   0.03003   0.02507  -0.1318  0.3286  0.0750  -3.1477   0.0000   0.0000   0.0000   0.3252
   6.160   1.2694   0.03006   0.02510  -0.1318  0.3286  0.0750  -3.1485   0.0000   0.0000   0.0000   0.3250
   6.170   1.2702   0.03009   0.02513  -0.1318  0.3286  0.0750  -3.1494   0.0000   0.0000   0.0000   0.3249
   6.180   1.2710   0.03012   0.02517  -0.1317  0.3285  0.0750  -3.1502   0.0000   0.0000   0.0000   0.3248
   6.190   1.2718   0.03016   0.02520  -0.1317  0.3285  0.0751  -3.1511   0.0000   0.0000   0.0000   0.3247
   6.200   1.2726   0.03019   0.02523  -0.1317  0.3285  0.0751  -3.1519   0.0000   0.0000   0.0000   0.3246
   6.210   1.2734   0.03022   0.02527  -0.1316  0.3285  0.0751  -3.1528   0.0000   0.0000   0.0000   0.3245
   6.220   1.2742   0.03025   0.02530  -0.1316  0.3285  0.0751  -3.1536   0.0000   0.0000   0.0000   0.3243
   6.230   1.2750   0.03029   0.02533  -0.1316  0.3285  0.0752  -3.1544   0.0000   0.0000   0.0000   0.3242
   6.240   1.2758   0.03032   0.02537  -0.1315  0.3284  0.0752  -3.1553   0.0000   0.0000   0.0000   0.3241
   6.250   1.2766   0.03035   0.02540  -0.1315  0.3284  0.0752  -3.1561   0.0000   0.0000   0.0000   0.3240
   6.260   1.2774   0.03038   0.02543  -0.1315  0.3284  0.0752  -3.1570   0.0000   0.0000   0.0000   0.3239
   6.270   1.2782   0.03041   0.02547  -0.1314  0.3284  0.0752  -3.1578   0.0000   0.0000   0.0000   0.3238
   6.280   1.2790   0.03045   0.02550  -0.1314  0.3284  0.0753  -3.1587   0.0000   0.0000   0.0000   0.3236
   6.290   1.2798   0.03048   0.02553  -0.1314  0.3284  0.0753  -3.1595   0.0000   0.0000   0.0000   0.3235
   6.300   1.2806   0.03051   0.02557  -0.1313  0.3283  0.0753  -3.1603   0.0000   0.0000   0.0000   0.3234
   6.310   1.2814   0.03054   0.02560  -0.1313  0.3283  0.0753  -3.1612   0.0000   0.0000   0.0000   0.3233
   6.320   1.2822   0.03058   0.02563  -0.1313  0.3283  0.0754  -3.1620   0.0000   0.0000   0.0000   0.3232
   6.330   1.2830   0.03061   0.02567  -0.1312  0.3283  0.0754  -3.1628   0.0000   0.0000   0.0000   0.3231
   6.340   1.2838   0.03064   0.02570  -0.1312  0.3283  0.0754  -3.1637   0.0000   0.0000   0.0000   0.3229
   6.350   1.2846   0.03068   0.02573  -0.1312  0.3283  0.0754  -3.1645   0.0000   0.0000   0.0000   0.3228
   6.360   1.2854   0.03071   0.02577  -0.1311  0.3282  0.0755  -3.1653   0.0000   0.0000   0.0000   0.3227
   6.370   1.2862   0.03074   0.02580  -0.1311  0.3282  0.0755  -3.1661   0.0000   0.0000   0.0000   0.3226
   6.380   1.2870   0.03078   0.02584  -0.1311  0.3282  0.0755  -3.1669   0.0000   0.0000   0.0000   0.3225
   6.390   1.2877   0.03081   0.02587  -0.1310  0.3282  0.0755  -3.1677   0.0000   0.0000   0.0000   0.3224
   6.400   1.2885   0.03085   0.02591  -0.1310  0.3282  0.0756  -3.1684   0.0000   0.0000   0.0000   0.3223
   6.410   1.2891   0.03089   0.02595  -0.1310  0.3281  0.0756  -3.1691   0.0000   0.0000   0.0000   0.3222
   6.420   1.2898   0.03093   0.02600  -0.1309  0.3281  0.0756  -3.1696   0.0000   0.0000   0.0000   0.3220
   6.430   1.2903   0.03098   0.02604  -0.1309  0.3281  0.0756  -3.1702   0.0000   0.0000   0.0000   0.3219
   6.440   1.2909   0.03102   0.02609  -0.1308  0.3281  0.0756  -3.1706   0.0000   0.0000   0.0000   0.3218
   6.450   1.2914   0.03107   0.02614  -0.1308  0.3281  0.0757  -3.1710   0.0000   0.0000   0.0000   0.3217
   6.460   1.2919   0.03113   0.02620  -0.1307  0.3281  0.0757  -3.1714   0.0000   0.0000   0.0000   0.3216
   6.470   1.2924   0.03118   0.02625  -0.1307  0.3280  0.0757  -3.1718   0.0000   0.0000   0.0000   0.3215
   6.480   1.2928   0.03123   0.02630  -0.1306  0.3280  0.0757  -3.1721   0.0000   0.0000   0.0000   0.3214
   6.490   1.2933   0.03128   0.02636  -0.1305  0.3280  0.0758  -3.1724   0.0000   0.0000   0.0000   0.3213
   6.500   1.2938   0.03133   0.02641  -0.1305  0.3280  0.0758  -3.1728   0.0000   0.0000   0.0000   0.3211
   6.510   1.2944   0.03138   0.02646  -0.1304  0.3280  0.0758  -3.1733   0.0000   0.0000   0.0000   0.3210
   6.520   1.2949   0.03143   0.02650  -0.1304  0.3279  0.0758  -3.1738   0.0000   0.0000   0.0000   0.3209
   6.530   1.2955   0.03147   0.02655  -0.1303  0.3279  0.0758  -3.1743   0.0000   0.0000   0.0000   0.3208
   6.540   1.2961   0.03152   0.02660  -0.1303  0.3279  0.0759  -3.1749   0.0000   0.0000   0.0000   0.3207
   6.550   1.2968   0.03156   0.02664  -0.1303  0.3279  0.0759  -3.1754   0.0000   0.0000   0.0000   0.3206
   6.560   1.2974   0.03160   0.02668  -0.1302  0.3279  0.0759  -3.1760   0.0000   0.0000   0.0000   0.3205
   6.570   1.2981   0.03164   0.02673  -0.1302  0.3278  0.0759  -3.1766   0.0000   0.0000   0.0000   0.3204
   6.580   1.2987   0.03168   0.02677  -0.1301  0.3278  0.0760  -3.1773   0.0000   0.0000   0.0000   0.3203
   6.590   1.2994   0.03173   0.02681  -0.1301  0.3278  0.0760  -3.1779   0.0000   0.0000   0.0000   0.3202
   6.600   1.3001   0.03177   0.02685  -0.1301  0.3278  0.0760  -3.1786   0.0000   0.0000   0.0000   0.3200
   6.610   1.3008   0.03180   0.02689  -0.1300  0.3278  0.0760  -3.1793   0.0000   0.0000   0.0000   0.3199
   6.620   1.3015   0.03184   0.02693  -0.1300  0.3277  0.0761  -3.1799   0.0000   0.0000   0.0000   0.3198
   6.630   1.3023   0.03188   0.02697  -0.1299  0.3277  0.0761  -3.1806   0.0000   0.0000   0.0000   0.3197
   6.640   1.3030   0.03192   0.02701  -0.1299  0.3277  0.0761  -3.1813   0.0000   0.0000   0.0000   0.3196
   6.650   1.3037   0.03196   0.02705  -0.1299  0.3277  0.0761  -3.1821   0.0000   0.0000   0.0000   0.3195
   6.660   1.3044   0.03200   0.02709  -0.1298  0.3277  0.0762  -3.1828   0.0000   0.0000   0.0000   0.3194
   6.670   1.3052   0.03203   0.02713  -0.1298  0.3277  0.0762  -3.1835   0.0000   0.0000   0.0000   0.3193
   6.680   1.3059   0.03207   0.02717  -0.1298  0.3276  0.0762  -3.1842   0.0000   0.0000   0.0000   0.3192
   6.690   1.3067   0.03211   0.02721  -0.1297  0.3276  0.0762  -3.1850   0.0000   0.0000   0.0000   0.3191
   6.700   1.3074   0.03215   0.02724  -0.1297  0.3276  0.0763  -3.1857   0.0000   0.0000   0.0000   0.3189
   6.710   1.3082   0.03218   0.02728  -0.1297  0.3276  0.0763  -3.1864   0.0000   0.0000   0.0000   0.3188
   6.720   1.3089   0.03222   0.02732  -0.1296  0.3276  0.0763  -3.1872   0.0000   0.0000   0.0000   0.3187
   6.730   1.3097   0.03226   0.02736  -0.1296  0.3275  0.0763  -3.1879   0.0000   0.0000   0.0000   0.3186
   6.740   1.3104   0.03229   0.02739  -0.1296  0.3275  0.0764  -3.1887   0.0000   0.0000   0.0000   0.3185
   6.750   1.3112   0.03233   0.02743  -0.1295  0.3275  0.0764  -3.1894   0.0000   0.0000   0.0000   0.3184
   6.760   1.3119   0.03236   0.02747  -0.1295  0.3275  0.0764  -3.1902   0.0000   0.0000   0.0000   0.3183
   6.770   1.3127   0.03240   0.02751  -0.1295  0.3275  0.0764  -3.1909   0.0000   0.0000   0.0000   0.3182
   6.780   1.3135   0.03244   0.02754  -0.1294  0.3275  0.0765  -3.1917   0.0000   0.0000   0.0000   0.3181
   6.790   1.3142   0.03247   0.02758  -0.1294  0.3274  0.0765  -3.1925   0.0000   0.0000   0.0000   0.3180
   6.800   1.3150   0.03251   0.02762  -0.1294  0.3274  0.0765  -3.1932   0.0000   0.0000   0.0000   0.3179
   6.810   1.3158   0.03254   0.02765  -0.1293  0.3274  0.0766  -3.1940   0.0000   0.0000   0.0000   0.3178
   6.820   1.3165   0.03258   0.02769  -0.1293  0.3274  0.0766  -3.1947   0.0000   0.0000   0.0000   0.3176
   6.830   1.3173   0.03262   0.02773  -0.1293  0.3274  0.0767  -3.1955   0.0000   0.0000   0.0000   0.3175
   6.840   1.3181   0.03265   0.02776  -0.1292  0.3274  0.0767  -3.1963   0.0000   0.0000   0.0000   0.3174
   6.850   1.3188   0.03269   0.02780  -0.1292  0.3273  0.0768  -3.1970   0.0000   0.0000   0.0000   0.3173
   6.860   1.3196   0.03272   0.02784  -0.1292  0.3273  0.0768  -3.1978   0.0000   0.0000   0.0000   0.3172
   6.870   1.3204   0.03276   0.02787  -0.1292  0.3273  0.0769  -3.1985   0.0000   0.0000   0.0000   0.3171
   6.880   1.3211   0.03279   0.02791  -0.1291  0.3273  0.0770  -3.1993   0.0000   0.0000   0.0000   0.3170
   6.890   1.3219   0.03283   0.02795  -0.1291  0.3273  0.0770  -3.2001   0.0000   0.0000   0.0000   0.3169
   6.900   1.3227   0.03287   0.02799  -0.1291  0.3272  0.0771  -3.2008   0.0000   0.0000   0.0000   0.3168
   6.910   1.3234   0.03290   0.02802  -0.1290  0.3272  0.0772  -3.2016   0.0000   0.0000   0.0000   0.3167
   6.920   1.3242   0.03294   0.02806  -0.1290  0.3272  0.0773  -3.2023   0.0000   0.0000   0.0000   0.3166
   6.930   1.3249   0.03297   0.02810  -0.1290  0.3272  0.0774  -3.2031   0.0000   0.0000   0.0000   0.3165
   6.940   1.3257   0.03301   0.02813  -0.1289  0.3272  0.0775  -3.2038   0.0000   0.0000   0.0000   0.3164
   6.950   1.3265   0.03305   0.02817  -0.1289  0.3272  0.0775  -3.2046   0.0000   0.0000   0.0000   0.3163
   6.960   1.3272   0.03308   0.02821  -0.1289  0.3271  0.0776  -3.2053   0.0000   0.0000   0.0000   0.3162
   6.970   1.3280   0.03312   0.02825  -0.1288  0.3271  0.0777  -3.2061   0.0000   0.0000   0.0000   0.3160
   6.980   1.3288   0.03316   0.02828  -0.1288  0.3271  0.0778  -3.2068   0.0000   0.0000   0.0000   0.3159
   6.990   1.3295   0.03319   0.02832  -0.1288  0.3271  0.0778  -3.2076   0.0000   0.0000   0.0000   0.3158
   7.000   1.3303   0.03323   0.02836  -0.1287  0.3271  0.0779  -3.2083   0.0000   0.0000   0.0000   0.3157
   7.010   1.3310   0.03326   0.02840  -0.1287  0.3270  0.0780  -3.2091   0.0000   0.0000   0.0000   0.3156
   7.020   1.3318   0.03330   0.02843  -0.1287  0.3270  0.0780  -3.2098   0.0000   0.0000   0.0000   0.3155
   7.030   1.3325   0.03334   0.02847  -0.1287  0.3270  0.0781  -3.2105   0.0000   0.0000   0.0000   0.3154
   7.040   1.3333   0.03338   0.02851  -0.1286  0.3270  0.0781  -3.2113   0.0000   0.0000   0.0000   0.3153
   7.050   1.3340   0.03341   0.02855  -0.1286  0.3270  0.0782  -3.2120   0.0000   0.0000   0.0000   0.3152
   7.060   1.3348   0.03345   0.02859  -0.1286  0.3269  0.0782  -3.2127   0.0000   0.0000   0.0000   0.3151
   7.070   1.3355   0.03349   0.02863  -0.1285  0.3269  0.0783  -3.2133   0.0000   0.0000   0.0000   0.3150
   7.080   1.3361   0.03353   0.02867  -0.1285  0.3269  0.0783  -3.2139   0.0000   0.0000   0.0000   0.3149
   7.090   1.3367   0.03358   0.02872  -0.1284  0.3269  0.0784  -3.2144   0.0000   0.0000   0.0000   0.3148
   7.100   1.3372   0.03363   0.02877  -0.1284  0.3269  0.0784  -3.2148   0.0000   0.0000   0.0000   0.3147
   7.110   1.3377   0.03368   0.02883  -0.1283  0.3269  0.0785  -3.2151   0.0000   0.0000   0.0000   0.3146
   7.120   1.3382   0.03374   0.02888  -0.1283  0.3268  0.0786  -3.2154   0.0000   0.0000   0.0000   0.3145
   7.130   1.3386   0.03380   0.02894  -0.1282  0.3268  0.0786  -3.2156   0.0000   0.0000   0.0000   0.3144
   7.140   1.3390   0.03385   0.02900  -0.1282  0.3268  0.0787  -3.2159   0.0000   0.0000   0.0000   0.3143
   7.150   1.3395   0.03391   0.02906  -0.1281  0.3268  0.0788  -3.2161   0.0000   0.0000   0.0000   0.3142
   7.160   1.3399   0.03397   0.02912  -0.1281  0.3267  0.0789  -3.2163   0.0000   0.0000   0.0000   0.3141
   7.170   1.3403   0.03403   0.02918  -0.1280  0.3267  0.0789  -3.2165   0.0000   0.0000   0.0000   0.3140
   7.180   1.3408   0.03408   0.02923  -0.1280  0.3267  0.0790  -3.2168   0.0000   0.0000   0.0000   0.3139
   7.190   1.3413   0.03414   0.02929  -0.1279  0.3267  0.0791  -3.2172   0.0000   0.0000   0.0000   0.3138
   7.200   1.3418   0.03419   0.02934  -0.1279  0.3267  0.0792  -3.2176   0.0000   0.0000   0.0000   0.3137
   7.210   1.3424   0.03424   0.02939  -0.1278  0.3266  0.0793  -3.2180   0.0000   0.0000   0.0000   0.3136
   7.220   1.3429   0.03428   0.02944  -0.1278  0.3266  0.0794  -3.2184   0.0000   0.0000   0.0000   0.3135
   7.230   1.3435   0.03433   0.02949  -0.1277  0.3266  0.0795  -3.2189   0.0000   0.0000   0.0000   0.3134
   7.240   1.3441   0.03438   0.02954  -0.1277  0.3266  0.0796  -3.2194   0.0000   0.0000   0.0000   0.3133
   7.250   1.3448   0.03442   0.02959  -0.1277  0.3266  0.0797  -3.2199   0.0000   0.0000   0.0000   0.3132
   7.260   1.3454   0.03447   0.02963  -0.1276  0.3265  0.0798  -3.2205   0.0000   0.0000   0.0000   0.3131
   7.270   1.3461   0.03451   0.02968  -0.1276  0.3265  0.0799  -3.2210   0.0000   0.0000   0.0000   0.3130
   7.280   1.3467   0.03456   0.02972  -0.1275  0.3265  0.0801  -3.2216   0.0000   0.0000   0.0000   0.3129
   7.290   1.3474   0.03460   0.02977  -0.1275  0.3265  0.0802  -3.2222   0.0000   0.0000   0.0000   0.3128
   7.300   1.3480   0.03464   0.02981  -0.1275  0.3265  0.0803  -3.2228   0.0000   0.0000   0.0000   0.3127
   7.310   1.3487   0.03468   0.02985  -0.1274  0.3265  0.0804  -3.2234   0.0000   0.0000   0.0000   0.3126
   7.320   1.3494   0.03473   0.02990  -0.1274  0.3264  0.0805  -3.2240   0.0000   0.0000   0.0000   0.3125
   7.330   1.3501   0.03477   0.02994  -0.1274  0.3264  0.0806  -3.2246   0.0000   0.0000   0.0000   0.3124
   7.340   1.3508   0.03481   0.02998  -0.1273  0.3264  0.0807  -3.2252   0.0000   0.0000   0.0000   0.3123
   7.350   1.3515   0.03485   0.03002  -0.1273  0.3264  0.0808  -3.2259   0.0000   0.0000   0.0000   0.3122
   7.360   1.3522   0.03489   0.03007  -0.1273  0.3264  0.0809  -3.2265   0.0000   0.0000   0.0000   0.3121
[...]
  10.000   1.5067   0.04905   0.04481  -0.1197  0.3163  0.2359  -3.3336   0.0000   0.0000   0.0000   0.2902
  10.010   1.5071   0.04912   0.04488  -0.1197  0.3162  0.2363  -3.3337   0.0000   0.0000   0.0000   0.2902
  10.020   1.5076   0.04918   0.04495  -0.1197  0.3162  0.2368  -3.3338   0.0000   0.0000   0.0000   0.2901
  10.030   1.5080   0.04925   0.04502  -0.1197  0.3161  0.2372  -3.3339   0.0000   0.0000   0.0000   0.2900
  10.040   1.5085   0.04932   0.04508  -0.1196  0.3160  0.2376  -3.3340   0.0000   0.0000   0.0000   0.2900
  10.050   1.5090   0.04939   0.04515  -0.1196  0.3159  0.2381  -3.3341   0.0000   0.0000   0.0000   0.2899
  10.060   1.5095   0.04945   0.04522  -0.1196  0.3159  0.2385  -3.3343   0.0000   0.0000   0.0000   0.2898
  10.070   1.5100   0.04951   0.04528  -0.1196  0.3158  0.2389  -3.3345   0.0000   0.0000   0.0000   0.2898
  10.080   1.5105   0.04958   0.04535  -0.1195  0.3158  0.2394  -3.3347   0.0000   0.0000   0.0000   0.2897
  10.090   1.5111   0.04964   0.04541  -0.1195  0.3157  0.2398  -3.3350   0.0000   0.0000   0.0000   0.2896
  10.100   1.5116   0.04970   0.04547  -0.1195  0.3157  0.2402  -3.3353   0.0000   0.0000   0.0000   0.2896
  10.110   1.5123   0.04975   0.04553  -0.1195  0.3157  0.2407  -3.3356   0.0000   0.0000   0.0000   0.2895
  10.120   1.5128   0.04981   0.04559  -0.1195  0.3156  0.2411  -3.3359   0.0000   0.0000   0.0000   0.2894
  10.130   1.5134   0.04987   0.04565  -0.1195  0.3156  0.2416  -3.3362   0.0000   0.0000   0.0000   0.2894
  10.140   1.5140   0.04993   0.04571  -0.1194  0.3156  0.2421  -3.3365   0.0000   0.0000   0.0000   0.2893
  10.150   1.5146   0.04999   0.04578  -0.1194  0.3155  0.2425  -3.3368   0.0000   0.0000   0.0000   0.2892
  10.160   1.5151   0.05005   0.04584  -0.1194  0.3155  0.2430  -3.3370   0.0000   0.0000   0.0000   0.2891
  10.170   1.5156   0.05011   0.04590  -0.1194  0.3154  0.2435  -3.3372   0.0000   0.0000   0.0000   0.2891
  10.180   1.5162   0.05018   0.04597  -0.1194  0.3154  0.2441  -3.3374   0.0000   0.0000   0.0000   0.2890
  10.190   1.5167   0.05024   0.04604  -0.1193  0.3153  0.2446  -3.3376   0.0000   0.0000   0.0000   0.2889
  10.200   1.5171   0.05031   0.04611  -0.1193  0.3153  0.2454  -3.3377   0.0000   0.0000   0.0000   0.2889
  10.210   1.5176   0.05038   0.04618  -0.1193  0.3152  0.2465  -3.3378   0.0000   0.0000   0.0000   0.2888
  10.220   1.5181   0.05045   0.04626  -0.1193  0.3151  0.2476  -3.3378   0.0000   0.0000   0.0000   0.2888
  10.230   1.5185   0.05053   0.04633  -0.1193  0.3150  0.2486  -3.3378   0.0000   0.0000   0.0000   0.2887
  10.240   1.5189   0.05061   0.04642  -0.1193  0.3149  0.2497  -3.3378   0.0000   0.0000   0.0000   0.2886
  10.250   1.5192   0.05069   0.04650  -0.1193  0.3148  0.2507  -3.3376   0.0000   0.0000   0.0000   0.2886
  10.260   1.5195   0.05078   0.04659  -0.1192  0.3147  0.2517  -3.3375   0.0000   0.0000   0.0000   0.2885
  10.270   1.5198   0.05086   0.04668  -0.1192  0.3146  0.2527  -3.3372   0.0000   0.0000   0.0000   0.2885
  10.280   1.5198   0.05097   0.04678  -0.1192  0.3145  0.2537  -3.3365   0.0000   0.0000   0.0000   0.2884
  10.290   1.5193   0.05110   0.04692  -0.1191  0.3143  0.2545  -3.3350   0.0000   0.0000   0.0000   0.2884
  10.300   1.5190   0.05122   0.04704  -0.1190  0.3142  0.2554  -3.3337   0.0000   0.0000   0.0000   0.2883
  10.310   1.5184   0.05136   0.04719  -0.1190  0.3140  0.2564  -3.3321   0.0000   0.0000   0.0000   0.2882
  10.320   1.5177   0.05151   0.04734  -0.1189  0.3138  0.2573  -3.3302   0.0000   0.0000   0.0000   0.2882
  10.330   1.5171   0.05165   0.04748  -0.1188  0.3136  0.2584  -3.3285   0.0000   0.0000   0.0000   0.2881
  10.340   1.5168   0.05178   0.04762  -0.1188  0.3134  0.2599  -3.3272   0.0000   0.0000   0.0000   0.2881
  10.350   1.5168   0.05191   0.04775  -0.1188  0.3132  0.2627  -3.3263   0.0000   0.0000   0.0000   0.2881
  10.360   1.5169   0.05203   0.04788  -0.1188  0.3130  0.2655  -3.3257   0.0000   0.0000   0.0000   0.2880
  10.370   1.5170   0.05215   0.04801  -0.1188  0.3127  0.2681  -3.3250   0.0000   0.0000   0.0000   0.2880
  10.380   1.5171   0.05227   0.04813  -0.1188  0.3125  0.2709  -3.3244   0.0000   0.0000   0.0000   0.2880
  10.390   1.5173   0.05239   0.04826  -0.1188  0.3122  0.2742  -3.3238   0.0000   0.0000   0.0000   0.2879
  10.400   1.5179   0.05252   0.04840  -0.1189  0.3119  0.2801  -3.3238   0.0000   0.0000   0.0000   0.2880
  10.410   1.5185   0.05265   0.04855  -0.1191  0.3116  0.2856  -3.3237   0.0000   0.0000   0.0000   0.2880
  10.420   1.5189   0.05278   0.04869  -0.1191  0.3112  0.2914  -3.3233   0.0000   0.0000   0.0000   0.2880
  10.430   1.5206   0.05295   0.04888  -0.1195  0.3108  0.3025  -3.3243   0.0000   0.0000   0.0000   0.2881
  10.440   1.5202   0.05309   0.04903  -0.1195  0.3103  0.3044  -3.3231   0.0000   0.0000   0.0000   0.2881
  10.450   1.5194   0.05323   0.04917  -0.1194  0.3098  0.3045  -3.3213   0.0000   0.0000   0.0000   0.2880
  10.460   1.5184   0.05339   0.04933  -0.1192  0.3093  0.3046  -3.3193   0.0000   0.0000   0.0000   0.2879
  10.470   1.5172   0.05356   0.04950  -0.1191  0.3087  0.3046  -3.3169   0.0000   0.0000   0.0000   0.2879
  10.480   1.5155   0.05376   0.04970  -0.1190  0.3080  0.3047  -3.3140   0.0000   0.0000   0.0000   0.2878
  10.490   1.5135   0.05398   0.04992  -0.1188  0.3073  0.3047  -3.3105   0.0000   0.0000   0.0000   0.2878
  10.500   1.5104   0.05427   0.05020  -0.1185  0.3063  0.3047  -3.3053   0.0000   0.0000   0.0000   0.2877
  10.510   1.5059   0.05465   0.05058  -0.1182  0.3052  0.3045  -3.2981   0.0000   0.0000   0.0000   0.2877
  10.520   1.5015   0.05501   0.05094  -0.1179  0.3041  0.3044  -3.2911   0.0000   0.0000   0.0000   0.2876
  10.530   1.4829   0.05588   0.05174  -0.1160  0.3016  0.2727  -3.2643   0.0000   0.0000   0.0000   0.2871
  10.540   1.4806   0.05613   0.05198  -0.1158  0.3009  0.2728  -3.2604   0.0000   0.0000   0.0000   0.2871
  10.550   1.4739   0.05661   0.05245  -0.1152  0.2992  0.2677  -3.2511   0.0000   0.0000   0.0000   0.2870
  10.560   1.4681   0.05703   0.05286  -0.1148  0.2977  0.2639  -3.2434   0.0000   0.0000   0.0000   0.2869
  10.570   1.4622   0.05746   0.05328  -0.1143  0.2964  0.2598  -3.2359   0.0000   0.0000   0.0000   0.2868
  10.580   1.4582   0.05781   0.05362  -0.1140  0.2955  0.2585  -3.2304   0.0000   0.0000   0.0000   0.2868
  10.590   1.4552   0.05809   0.05390  -0.1137  0.2947  0.2580  -3.2260   0.0000   0.0000   0.0000   0.2867
  10.600   1.4544   0.05826   0.05406  -0.1137  0.2943  0.2591  -3.2239   0.0000   0.0000   0.0000   0.2867
  10.610   1.4533   0.05843   0.05424  -0.1136  0.2938  0.2601  -3.2212   0.0000   0.0000   0.0000   0.2866
  10.620   1.4504   0.05871   0.05452  -0.1134  0.2929  0.2597  -3.2149   0.0000   0.0000   0.0000   0.2866
  10.630   1.4362   0.05970   0.05549  -0.1124  0.2904  0.2532  -3.1848   0.0000   0.0000   0.0000   0.2866
  10.640   1.4317   0.06009   0.05589  -0.1121  0.2895  0.2523  -3.1776   0.0000   0.0000   0.0000   0.2865
  10.650   1.4292   0.06035   0.05615  -0.1119  0.2889  0.2522  -3.1737   0.0000   0.0000   0.0000   0.2865
  10.660   1.4271   0.06060   0.05639  -0.1118  0.2883  0.2523  -3.1702   0.0000   0.0000   0.0000   0.2864
  10.670   1.4250   0.06084   0.05663  -0.1116  0.2877  0.2524  -3.1669   0.0000   0.0000   0.0000   0.2864
  10.680   1.4227   0.06109   0.05689  -0.1114  0.2871  0.2524  -3.1633   0.0000   0.0000   0.0000   0.2864
  10.690   1.4199   0.06138   0.05718  -0.1112  0.2864  0.2522  -3.1591   0.0000   0.0000   0.0000   0.2863
  10.700   1.4159   0.06174   0.05753  -0.1110  0.2856  0.2515  -3.1535   0.0000   0.0000   0.0000   0.2863
  10.710   1.4125   0.06206   0.05785  -0.1107  0.2848  0.2511  -3.1482   0.0000   0.0000   0.0000   0.2863
  10.720   1.4108   0.06228   0.05806  -0.1106  0.2842  0.2513  -3.1445   0.0000   0.0000   0.0000   0.2862
  10.730   1.4094   0.06248   0.05826  -0.1105  0.2837  0.2517  -3.1412   0.0000   0.0000   0.0000   0.2862
  10.740   1.4083   0.06266   0.05845  -0.1104  0.2833  0.2522  -3.1381   0.0000   0.0000   0.0000   0.2861
  10.750   1.4074   0.06283   0.05862  -0.1103  0.2829  0.2527  -3.1352   0.0000   0.0000   0.0000   0.2861
  10.760   1.4066   0.06299   0.05878  -0.1102  0.2825  0.2534  -3.1325   0.0000   0.0000   0.0000   0.2860
  10.770   1.4059   0.06315   0.05894  -0.1102  0.2822  0.2540  -3.1297   0.0000   0.0000   0.0000   0.2860
  10.780   1.4039   0.06339   0.05919  -0.1100  0.2817  0.2542  -3.1242   0.0000   0.0000   0.0000   0.2860
  10.790   1.3980   0.06389   0.05969  -0.1096  0.2810  0.2526  -3.1107   0.0000   0.0000   0.0000   0.2860
  10.800   1.3952   0.06419   0.05999  -0.1095  0.2805  0.2524  -3.1030   0.0000   0.0000   0.0000   0.2859
  10.810   1.3935   0.06442   0.06022  -0.1093  0.2801  0.2527  -3.0972   0.0000   0.0000   0.0000   0.2859
  10.820   1.3922   0.06462   0.06042  -0.1092  0.2797  0.2531  -3.0928   0.0000   0.0000   0.0000   0.2859
  10.830   1.3910   0.06481   0.06061  -0.1091  0.2793  0.2536  -3.0906   0.0000   0.0000   0.0000   0.2858
  10.840   1.3900   0.06500   0.06080  -0.1091  0.2790  0.2541  -3.0886   0.0000   0.0000   0.0000   0.2858
  10.850   1.3890   0.06518   0.06098  -0.1090  0.2787  0.2547  -3.0867   0.0000   0.0000   0.0000   0.2857
  10.860   1.3880   0.06535   0.06116  -0.1089  0.2783  0.2553  -3.0848   0.0000   0.0000   0.0000   0.2857
  10.870   1.3870   0.06553   0.06134  -0.1088  0.2780  0.2559  -3.0829   0.0000   0.0000   0.0000   0.2857
  10.880   1.3860   0.06571   0.06152  -0.1087  0.2777  0.2566  -3.0810   0.0000   0.0000   0.0000   0.2856
  10.890   1.3849   0.06590   0.06171  -0.1086  0.2773  0.2573  -3.0790   0.0000   0.0000   0.0000   0.2856
  10.900   1.3838   0.06609   0.06190  -0.1086  0.2770  0.2581  -3.0769   0.0000   0.0000   0.0000   0.2856
  10.910   1.3825   0.06629   0.06210  -0.1085  0.2767  0.2588  -3.0748   0.0000   0.0000   0.0000   0.2855
  10.920   1.3812   0.06649   0.06230  -0.1084  0.2763  0.2596  -3.0724   0.0000   0.0000   0.0000   0.2855
  10.930   1.3797   0.06670   0.06252  -0.1083  0.2759  0.2603  -3.0699   0.0000   0.0000   0.0000   0.2855
  10.940   1.3781   0.06693   0.06275  -0.1082  0.2755  0.2611  -3.0672   0.0000   0.0000   0.0000   0.2854
  10.950   1.3773   0.06711   0.06293  -0.1081  0.2752  0.2630  -3.0653   0.0000   0.0000   0.0000   0.2854
  10.960   1.3772   0.06726   0.06308  -0.1081  0.2750  0.2656  -3.0642   0.0000   0.0000   0.0000   0.2854
  10.970   1.3770   0.06741   0.06324  -0.1081  0.2747  0.2679  -3.0629   0.0000   0.0000   0.0000   0.2854
  10.980   1.3767   0.06756   0.06339  -0.1081  0.2745  0.2702  -3.0615   0.0000   0.0000   0.0000   0.2854
  10.990   1.3762   0.06772   0.06356  -0.1081  0.2742  0.2725  -3.0595   0.0000   0.0000   0.0000   0.2854
  11.000   1.3735   0.06802   0.06386  -0.1079  0.2737  0.2718  -3.0536   0.0000   0.0000   0.0000   0.2853
  11.010   1.3663   0.06858   0.06441  -0.1074  0.2728  0.2660  -3.0392   0.0000   0.0000   0.0000   0.2853
  11.020   1.3639   0.06885   0.06469  -0.1073  0.2723  0.2659  -3.0331   0.0000   0.0000   0.0000   0.2853
  11.030   1.3626   0.06906   0.06490  -0.1072  0.2720  0.2670  -3.0291   0.0000   0.0000   0.0000   0.2853
  11.040   1.3619   0.06924   0.06509  -0.1072  0.2717  0.2687  -3.0259   0.0000   0.0000   0.0000   0.2852
  11.050   1.3614   0.06941   0.06525  -0.1072  0.2714  0.2709  -3.0232   0.0000   0.0000   0.0000   0.2852
  11.060   1.3612   0.06956   0.06541  -0.1072  0.2712  0.2737  -3.0210   0.0000   0.0000   0.0000   0.2852
  11.070   1.3615   0.06970   0.06557  -0.1072  0.2710  0.2786  -3.0194   0.0000   0.0000   0.0000   0.2852
  11.080   1.3620   0.06985   0.06573  -0.1074  0.2709  0.2841  -3.0182   0.0000   0.0000   0.0000   0.2853
  11.090   1.3625   0.06999   0.06588  -0.1075  0.2707  0.2896  -3.0170   0.0000   0.0000   0.0000   0.2853
  11.100   1.3640   0.07015   0.06607  -0.1078  0.2705  0.3002  -3.0169   0.0000   0.0000   0.0000   0.2854
  11.150   1.3644   0.07071   0.06664  -0.1077  0.2699  0.3049  -3.0122   0.0000   0.0000   0.0000   0.2852
  11.160   1.3643   0.07082   0.06676  -0.1077  0.2698  0.3051  -3.0116   0.0000   0.0000   0.0000   0.2852
  11.170   1.3642   0.07093   0.06687  -0.1076  0.2697  0.3055  -3.0109   0.0000   0.0000   0.0000   0.2851
  11.180   1.3640   0.07105   0.06700  -0.1076  0.2695  0.3058  -3.0102   0.0000   0.0000   0.0000   0.2851
  11.190   1.3638   0.07118   0.06712  -0.1076  0.2693  0.3061  -3.0094   0.0000   0.0000   0.0000   0.2850
  11.200   1.3636   0.07131   0.06725  -0.1075  0.2692  0.3063  -3.0085   0.0000   0.0000   0.0000   0.2850
  11.210   1.3632   0.07144   0.06738  -0.1075  0.2690  0.3066  -3.0075   0.0000   0.0000   0.0000   0.2849
  11.220   1.3628   0.07158   0.06752  -0.1074  0.2688  0.3067  -3.0064   0.0000   0.0000   0.0000   0.2849
  11.230   1.3623   0.07172   0.06767  -0.1074  0.2686  0.3069  -3.0052   0.0000   0.0000   0.0000   0.2848
  11.240   1.3617   0.07187   0.06782  -0.1073  0.2684  0.3071  -3.0039   0.0000   0.0000   0.0000   0.2848
  11.250   1.3610   0.07203   0.06797  -0.1072  0.2682  0.3072  -3.0024   0.0000   0.0000   0.0000   0.2847
  11.260   1.3602   0.07219   0.06814  -0.1072  0.2679  0.3073  -3.0008   0.0000   0.0000   0.0000   0.2847
  11.270   1.3592   0.07237   0.06832  -0.1071  0.2677  0.3075  -2.9989   0.0000   0.0000   0.0000   0.2847
  11.280   1.3579   0.07257   0.06852  -0.1070  0.2674  0.3075  -2.9965   0.0000   0.0000   0.0000   0.2846
  11.290   1.3529   0.07306   0.06901  -0.1067  0.2668  0.3073  -2.9879   0.0000   0.0000   0.0000   0.2847
  11.300   1.3454   0.07372   0.06968  -0.1063  0.2660  0.3068  -2.9757   0.0000   0.0000   0.0000   0.2847
  11.310   1.3433   0.07399   0.06994  -0.1062  0.2656  0.3068  -2.9719   0.0000   0.0000   0.0000   0.2847
  11.320   1.3421   0.07419   0.07014  -0.1061  0.2653  0.3069  -2.9694   0.0000   0.0000   0.0000   0.2847
  11.330   1.3413   0.07436   0.07031  -0.1060  0.2650  0.3071  -2.9672   0.0000   0.0000   0.0000   0.2847
  11.340   1.3406   0.07452   0.07048  -0.1060  0.2648  0.3072  -2.9650   0.0000   0.0000   0.0000   0.2846
  11.350   1.3399   0.07468   0.07064  -0.1059  0.2645  0.3073  -2.9629   0.0000   0.0000   0.0000   0.2846
  11.360   1.3393   0.07484   0.07080  -0.1059  0.2643  0.3075  -2.9608   0.0000   0.0000   0.0000   0.2845
  11.370   1.3386   0.07499   0.07095  -0.1058  0.2640  0.3076  -2.9587   0.0000   0.0000   0.0000   0.2845
  11.380   1.3382   0.07513   0.07109  -0.1057  0.2638  0.3078  -2.9570   0.0000   0.0000   0.0000   0.2845
  11.390   1.3381   0.07525   0.07121  -0.1057  0.2636  0.3079  -2.9557   0.0000   0.0000   0.0000   0.2844
  11.400   1.3380   0.07537   0.07133  -0.1057  0.2635  0.3081  -2.9545   0.0000   0.0000   0.0000   0.2844
  11.410   1.3379   0.07548   0.07144  -0.1056  0.2633  0.3082  -2.9534   0.0000   0.0000   0.0000   0.2843
  11.420   1.3379   0.07560   0.07156  -0.1056  0.2632  0.3084  -2.9524   0.0000   0.0000   0.0000   0.2843
  11.430   1.3379   0.07571   0.07167  -0.1056  0.2631  0.3086  -2.9513   0.0000   0.0000   0.0000   0.2842
  11.440   1.3378   0.07582   0.07179  -0.1055  0.2629  0.3089  -2.9501   0.0000   0.0000   0.0000   0.2842
  11.450   1.3377   0.07594   0.07191  -0.1055  0.2628  0.3092  -2.9488   0.0000   0.0000   0.0000   0.2841
  11.460   1.3376   0.07606   0.07203  -0.1055  0.2626  0.3096  -2.9473   0.0000   0.0000   0.0000   0.2841
  11.470   1.3373   0.07620   0.07217  -0.1054  0.2624  0.3099  -2.9455   0.0000   0.0000   0.0000   0.2840
  11.480   1.3368   0.07634   0.07232  -0.1054  0.2622  0.3101  -2.9430   0.0000   0.0000   0.0000   0.2840
  11.490   1.3361   0.07651   0.07249  -0.1053  0.2619  0.3104  -2.9400   0.0000   0.0000   0.0000   0.2839
  11.500   1.3353   0.07668   0.07266  -0.1053  0.2615  0.3106  -2.9383   0.0000   0.0000   0.0000   0.2839
  11.510   1.3345   0.07685   0.07283  -0.1052  0.2612  0.3108  -2.9366   0.0000   0.0000   0.0000   0.2839
  11.520   1.3338   0.07702   0.07300  -0.1052  0.2610  0.3111  -2.9350   0.0000   0.0000   0.0000   0.2838
  11.530   1.3330   0.07719   0.07317  -0.1051  0.2607  0.3115  -2.9334   0.0000   0.0000   0.0000   0.2838
  11.540   1.3318   0.07740   0.07338  -0.1050  0.2604  0.3117  -2.9310   0.0000   0.0000   0.0000   0.2838
  11.550   1.3290   0.07773   0.07371  -0.1049  0.2600  0.3116  -2.9258   0.0000   0.0000   0.0000   0.2838
  11.560   1.3260   0.07807   0.07405  -0.1047  0.2597  0.3114  -2.9204   0.0000   0.0000   0.0000   0.2838
  11.570   1.3245   0.07830   0.07428  -0.1046  0.2594  0.3116  -2.9174   0.0000   0.0000   0.0000   0.2838
  11.580   1.3236   0.07848   0.07447  -0.1046  0.2593  0.3119  -2.9154   0.0000   0.0000   0.0000   0.2838
  11.590   1.3231   0.07863   0.07462  -0.1045  0.2591  0.3121  -2.9140   0.0000   0.0000   0.0000   0.2837
  11.600   1.3228   0.07877   0.07476  -0.1045  0.2590  0.3125  -2.9130   0.0000   0.0000   0.0000   0.2837
  11.610   1.3228   0.07889   0.07488  -0.1045  0.2589  0.3128  -2.9123   0.0000   0.0000   0.0000   0.2837
  11.620   1.3228   0.07900   0.07500  -0.1044  0.2589  0.3131  -2.9117   0.0000   0.0000   0.0000   0.2836
  11.630   1.3229   0.07911   0.07511  -0.1044  0.2588  0.3135  -2.9113   0.0000   0.0000   0.0000   0.2836
  11.640   1.3230   0.07922   0.07522  -0.1044  0.2588  0.3138  -2.9109   0.0000   0.0000   0.0000   0.2835
  11.650   1.3231   0.07933   0.07533  -0.1044  0.2587  0.3142  -2.9105   0.0000   0.0000   0.0000   0.2835
  11.660   1.3232   0.07943   0.07544  -0.1044  0.2586  0.3145  -2.9100   0.0000   0.0000   0.0000   0.2834
  11.670   1.3233   0.07954   0.07555  -0.1044  0.2586  0.3149  -2.9096   0.0000   0.0000   0.0000   0.2834
  11.680   1.3233   0.07965   0.07566  -0.1043  0.2585  0.3152  -2.9091   0.0000   0.0000   0.0000   0.2833
  11.690   1.3233   0.07977   0.07578  -0.1043  0.2584  0.3155  -2.9086   0.0000   0.0000   0.0000   0.2833
  11.700   1.3233   0.07988   0.07590  -0.1043  0.2583  0.3158  -2.9080   0.0000   0.0000   0.0000   0.2833
  11.710   1.3232   0.08000   0.07602  -0.1043  0.2582  0.3161  -2.9073   0.0000   0.0000   0.0000   0.2832
  11.720   1.3231   0.08013   0.07614  -0.1042  0.2581  0.3163  -2.9066   0.0000   0.0000   0.0000   0.2832
  11.730   1.3229   0.08025   0.07627  -0.1042  0.2580  0.3166  -2.9059   0.0000   0.0000   0.0000   0.2831
  11.740   1.3227   0.08038   0.07640  -0.1042  0.2578  0.3168  -2.9050   0.0000   0.0000   0.0000   0.2831
  11.750   1.3225   0.08051   0.07653  -0.1041  0.2577  0.3171  -2.9041   0.0000   0.0000   0.0000   0.2831
  11.760   1.3222   0.08065   0.07667  -0.1041  0.2576  0.3173  -2.9032   0.0000   0.0000   0.0000   0.2830
  11.770   1.3218   0.08079   0.07681  -0.1041  0.2574  0.3175  -2.9021   0.0000   0.0000   0.0000   0.2830
  11.780   1.3214   0.08094   0.07696  -0.1040  0.2573  0.3177  -2.9010   0.0000   0.0000   0.0000   0.2829
  11.790   1.3209   0.08109   0.07711  -0.1040  0.2571  0.3179  -2.8997   0.0000   0.0000   0.0000   0.2829
  11.800   1.3201   0.08126   0.07729  -0.1039  0.2569  0.3181  -2.8980   0.0000   0.0000   0.0000   0.2829
  11.810   1.3189   0.08147   0.07749  -0.1038  0.2566  0.3182  -2.8957   0.0000   0.0000   0.0000   0.2829
  11.820   1.3180   0.08164   0.07767  -0.1038  0.2564  0.3184  -2.8940   0.0000   0.0000   0.0000   0.2828
  11.830   1.3174   0.08180   0.07783  -0.1037  0.2562  0.3185  -2.8925   0.0000   0.0000   0.0000   0.2828
  11.840   1.3168   0.08197   0.07800  -0.1037  0.2560  0.3186  -2.8910   0.0000   0.0000   0.0000   0.2828
  11.850   1.3161   0.08213   0.07816  -0.1036  0.2558  0.3187  -2.8894   0.0000   0.0000   0.0000   0.2827
  11.980   1.3026   0.08467   0.08071  -0.1028  0.2526  0.3193  -2.8566   0.0000   0.0000   0.0000   0.2825
  11.990   1.3026   0.08479   0.08083  -0.1027  0.2525  0.3195  -2.8561   0.0000   0.0000   0.0000   0.2824
  12.000   1.3025   0.08491   0.08095  -0.1027  0.2524  0.3196  -2.8555   0.0000   0.0000   0.0000   0.2824


