xflr5 v6.61

 Calculated polar for: Airfoil-RevE-HC

 1 1 Reynolds number fixed          Mach number fixed         

 xtrf =   1.000 (top)        1.000 (bottom)
 Mach =   0.000     Re =     6.000 e 6     Ncrit =   0.500

  alpha     CL        CD       CDp       Cm    Top Xtr Bot Xtr   Cpmin    Chinge    XCp    
 ------- -------- --------- --------- -------- ------- ------- -------- --------- ---------
   0.000   0.7776   0.01130   0.00533  -0.1612  0.3384  0.0203  -2.1542   0.0000   0.0000   0.0000   0.4504
   0.100   0.7867   0.01134   0.00537  -0.1609  0.3382  0.0204  -2.1639   0.0000   0.0000   0.0000   0.4473
   0.200   0.7959   0.01137   0.00542  -0.1606  0.3381  0.0204  -2.1736   0.0000   0.0000   0.0000   0.4442
   0.300   0.8050   0.01141   0.00546  -0.1603  0.3380  0.0205  -2.1834   0.0000   0.0000   0.0000   0.4412
   0.400   0.8142   0.01145   0.00550  -0.1601  0.3379  0.0206  -2.1931   0.0000   0.0000   0.0000   0.4382
   0.500   0.8234   0.01149   0.00555  -0.1598  0.3377  0.0207  -2.2029   0.0000   0.0000   0.0000   0.4354
   0.600   0.8322   0.01154   0.00560  -0.1595  0.3376  0.0211  -2.2123   0.0000   0.0000   0.0000   0.4326
   0.700   0.8405   0.01159   0.00566  -0.1590  0.3375  0.0216  -2.2213   0.0000   0.0000   0.0000   0.4298
   0.800   0.8487   0.01165   0.00572  -0.1586  0.3374  0.0221  -2.2302   0.0000   0.0000   0.0000   0.4271
   0.900   0.8572   0.01170   0.00578  -0.1582  0.3373  0.0225  -2.2393   0.0000   0.0000   0.0000   0.4245
   1.000   0.8658   0.01176   0.00584  -0.1579  0.3372  0.0228  -2.2486   0.0000   0.0000   0.0000   0.4219
   1.100   0.8747   0.01181   0.00589  -0.1576  0.3370  0.0231  -2.2580   0.0000   0.0000   0.0000   0.4194
   1.200   0.8836   0.01186   0.00595  -0.1573  0.3369  0.0232  -2.2674   0.0000   0.0000   0.0000   0.4169
   1.300   0.8925   0.01191   0.00600  -0.1570  0.3368  0.0233  -2.2769   0.0000   0.0000   0.0000   0.4145
   1.400   0.9016   0.01196   0.00606  -0.1567  0.3367  0.0234  -2.2865   0.0000   0.0000   0.0000   0.4121
   1.500   0.9106   0.01201   0.00611  -0.1564  0.3366  0.0235  -2.2960   0.0000   0.0000   0.0000   0.4098
   1.600   0.9196   0.01206   0.00617  -0.1562  0.3365  0.0236  -2.3056   0.0000   0.0000   0.0000   0.4075
   1.700   0.9286   0.01211   0.00623  -0.1559  0.3364  0.0237  -2.3151   0.0000   0.0000   0.0000   0.4052
   1.800   0.9373   0.01217   0.00629  -0.1556  0.3363  0.0238  -2.3243   0.0000   0.0000   0.0000   0.4030
   1.900   0.9453   0.01225   0.00637  -0.1552  0.3362  0.0241  -2.3329   0.0000   0.0000   0.0000   0.4008
   2.000   0.9532   0.01232   0.00646  -0.1547  0.3361  0.0247  -2.3415   0.0000   0.0000   0.0000   0.3987
   2.100   0.9614   0.01240   0.00654  -0.1543  0.3360  0.0256  -2.3502   0.0000   0.0000   0.0000   0.3966
   2.200   0.9699   0.01246   0.00661  -0.1540  0.3358  0.0262  -2.3592   0.0000   0.0000   0.0000   0.3946
   2.300   0.9785   0.01253   0.00668  -0.1537  0.3357  0.0268  -2.3684   0.0000   0.0000   0.0000   0.3926
   2.400   0.9872   0.01259   0.00675  -0.1534  0.3356  0.0275  -2.3775   0.0000   0.0000   0.0000   0.3906
   2.500   0.9959   0.01266   0.00682  -0.1531  0.3354  0.0280  -2.3867   0.0000   0.0000   0.0000   0.3886
   2.600   1.0046   0.01273   0.00689  -0.1528  0.3352  0.0287  -2.3959   0.0000   0.0000   0.0000   0.3867
   2.700   1.0133   0.01279   0.00696  -0.1525  0.3349  0.0303  -2.4051   0.0000   0.0000   0.0000   0.3848
   2.800   1.0212   0.01282   0.00702  -0.1520  0.3347  0.0501  -2.4139   0.0000   0.0000   0.0000   0.3830
   2.900   1.0291   0.01284   0.00709  -0.1516  0.3344  0.0667  -2.4226   0.0000   0.0000   0.0000   0.3811
   3.000   1.0372   0.01293   0.00718  -0.1512  0.3342  0.0684  -2.4316   0.0000   0.0000   0.0000   0.3793
   3.100   1.0448   0.01302   0.00729  -0.1508  0.3340  0.0694  -2.4400   0.0000   0.0000   0.0000   0.3775
   3.200   1.0526   0.01312   0.00739  -0.1503  0.3339  0.0700  -2.4486   0.0000   0.0000   0.0000   0.3758
   3.300   1.0608   0.01321   0.00749  -0.1500  0.3337  0.0702  -2.4576   0.0000   0.0000   0.0000   0.3741
   3.400   1.0692   0.01330   0.00758  -0.1497  0.3336  0.0704  -2.4667   0.0000   0.0000   0.0000   0.3724
   3.500   1.0777   0.01339   0.00767  -0.1494  0.3334  0.0706  -2.4760   0.0000   0.0000   0.0000   0.3707
   3.600   1.0863   0.01347   0.00776  -0.1491  0.3332  0.0708  -2.4854   0.0000   0.0000   0.0000   0.3691
   3.700   1.0950   0.01355   0.00785  -0.1488  0.3330  0.0709  -2.4948   0.0000   0.0000   0.0000   0.3675
   3.800   1.1037   0.01363   0.00793  -0.1486  0.3329  0.0711  -2.5042   0.0000   0.0000   0.0000   0.3660
   3.900   1.1124   0.01372   0.00802  -0.1483  0.3327  0.0714  -2.5136   0.0000   0.0000   0.0000   0.3644
   4.000   1.1211   0.01380   0.00811  -0.1481  0.3325  0.0717  -2.5229   0.0000   0.0000   0.0000   0.3629
   4.100   1.1297   0.01389   0.00821  -0.1478  0.3323  0.0721  -2.5322   0.0000   0.0000   0.0000   0.3614
   4.200   1.1375   0.01400   0.00832  -0.1474  0.3322  0.0726  -2.5407   0.0000   0.0000   0.0000   0.3599
   4.300   1.1449   0.01412   0.00845  -0.1470  0.3321  0.0731  -2.5488   0.0000   0.0000   0.0000   0.3584
   4.400   1.1526   0.01424   0.00858  -0.1466  0.3320  0.0736  -2.5573   0.0000   0.0000   0.0000   0.3570
   4.500   1.1608   0.01434   0.00869  -0.1463  0.3319  0.0740  -2.5661   0.0000   0.0000   0.0000   0.3555
   4.600   1.1692   0.01444   0.00879  -0.1460  0.3319  0.0745  -2.5750   0.0000   0.0000   0.0000   0.3542
   4.700   1.1777   0.01454   0.00890  -0.1457  0.3318  0.0750  -2.5841   0.0000   0.0000   0.0000   0.3528
   4.800   1.1863   0.01463   0.00900  -0.1455  0.3317  0.0752  -2.5933   0.0000   0.0000   0.0000   0.3514
   4.900   1.1949   0.01472   0.00910  -0.1452  0.3317  0.0755  -2.6025   0.0000   0.0000   0.0000   0.3501
   5.000   1.2035   0.01482   0.00920  -0.1450  0.3316  0.0757  -2.6117   0.0000   0.0000   0.0000   0.3488
   5.100   1.2122   0.01492   0.00930  -0.1448  0.3315  0.0760  -2.6209   0.0000   0.0000   0.0000   0.3475
   5.200   1.2208   0.01501   0.00941  -0.1446  0.3314  0.0762  -2.6301   0.0000   0.0000   0.0000   0.3462
   5.300   1.2290   0.01512   0.00953  -0.1443  0.3314  0.0765  -2.6388   0.0000   0.0000   0.0000   0.3450
   5.400   1.2362   0.01527   0.00968  -0.1439  0.3313  0.0767  -2.6466   0.0000   0.0000   0.0000   0.3437
   5.500   1.2435   0.01542   0.00984  -0.1434  0.3312  0.0771  -2.6544   0.0000   0.0000   0.0000   0.3424
   5.600   1.2512   0.01555   0.00997  -0.1431  0.3311  0.0778  -2.6627   0.0000   0.0000   0.0000   0.3412
   5.800   1.2676   0.01579   0.01023  -0.1426  0.3309  0.0791  -2.6800   0.0000   0.0000   0.0000   0.3388
   5.900   1.2759   0.01590   0.01035  -0.1423  0.3308  0.0803  -2.6888   0.0000   0.0000   0.0000   0.3376
   6.000   1.2843   0.01601   0.01047  -0.1421  0.3307  0.0815  -2.6976   0.0000   0.0000   0.0000   0.3365
   6.100   1.2927   0.01612   0.01059  -0.1419  0.3306  0.0825  -2.7064   0.0000   0.0000   0.0000   0.3353
   6.200   1.3011   0.01624   0.01071  -0.1416  0.3305  0.0832  -2.7153   0.0000   0.0000   0.0000   0.3342
   6.300   1.3095   0.01635   0.01083  -0.1414  0.3304  0.0836  -2.7241   0.0000   0.0000   0.0000   0.3331
   6.400   1.3177   0.01648   0.01097  -0.1412  0.3303  0.0841  -2.7326   0.0000   0.0000   0.0000   0.3320
   6.500   1.3245   0.01665   0.01115  -0.1407  0.3301  0.0861  -2.7398   0.0000   0.0000   0.0000   0.3309
   6.600   1.3310   0.01683   0.01135  -0.1403  0.3299  0.0934  -2.7467   0.0000   0.0000   0.0000   0.3298
   6.700   1.3372   0.01692   0.01154  -0.1397  0.3296  0.1423  -2.7533   0.0000   0.0000   0.0000   0.3286
   6.800   1.3447   0.01707   0.01171  -0.1394  0.3293  0.1495  -2.7612   0.0000   0.0000   0.0000   0.3275
   6.900   1.3523   0.01721   0.01187  -0.1391  0.3290  0.1537  -2.7692   0.0000   0.0000   0.0000   0.3265
   7.000   1.3600   0.01736   0.01203  -0.1388  0.3286  0.1577  -2.7772   0.0000   0.0000   0.0000   0.3255
   7.100   1.3677   0.01751   0.01219  -0.1385  0.3282  0.1604  -2.7853   0.0000   0.0000   0.0000   0.3244
   7.200   1.3754   0.01767   0.01235  -0.1382  0.3278  0.1612  -2.7933   0.0000   0.0000   0.0000   0.3234
   7.300   1.3830   0.01784   0.01252  -0.1380  0.3273  0.1623  -2.8012   0.0000   0.0000   0.0000   0.3224
   7.400   1.3897   0.01804   0.01273  -0.1376  0.3268  0.1639  -2.8081   0.0000   0.0000   0.0000   0.3214
   7.500   1.3950   0.01830   0.01300  -0.1370  0.3263  0.1661  -2.8136   0.0000   0.0000   0.0000   0.3204
   7.600   1.4013   0.01852   0.01324  -0.1366  0.3258  0.1692  -2.8201   0.0000   0.0000   0.0000   0.3194
   7.700   1.4082   0.01872   0.01344  -0.1362  0.3254  0.1722  -2.8271   0.0000   0.0000   0.0000   0.3184
   7.800   1.4155   0.01890   0.01363  -0.1359  0.3250  0.1760  -2.8346   0.0000   0.0000   0.0000   0.3174
   7.900   1.4231   0.01907   0.01382  -0.1357  0.3246  0.1843  -2.8423   0.0000   0.0000   0.0000   0.3165
   8.000   1.4309   0.01921   0.01400  -0.1354  0.3243  0.1978  -2.8502   0.0000   0.0000   0.0000   0.3156
   8.100   1.4389   0.01936   0.01418  -0.1353  0.3241  0.2071  -2.8583   0.0000   0.0000   0.0000   0.3147
   8.200   1.4470   0.01951   0.01434  -0.1351  0.3241  0.2135  -2.8665   0.0000   0.0000   0.0000   0.3138
   8.300   1.4545   0.01970   0.01454  -0.1348  0.3240  0.2182  -2.8739   0.0000   0.0000   0.0000   0.3129
   8.400   1.4608   0.01994   0.01480  -0.1345  0.3239  0.2237  -2.8801   0.0000   0.0000   0.0000   0.3120
   8.500   1.4678   0.02016   0.01504  -0.1342  0.3238  0.2290  -2.8869   0.0000   0.0000   0.0000   0.3112
   8.600   1.4752   0.02035   0.01524  -0.1340  0.3237  0.2330  -2.8943   0.0000   0.0000   0.0000   0.3103
   8.700   1.4830   0.02053   0.01544  -0.1338  0.3235  0.2372  -2.9022   0.0000   0.0000   0.0000   0.3095
   8.800   1.4908   0.02071   0.01564  -0.1336  0.3233  0.2410  -2.9103   0.0000   0.0000   0.0000   0.3086
   8.900   1.4986   0.02089   0.01583  -0.1334  0.3230  0.2475  -2.9184   0.0000   0.0000   0.0000   0.3078
   9.000   1.5065   0.02107   0.01605  -0.1333  0.3225  0.2647  -2.9265   0.0000   0.0000   0.0000   0.3070
   9.200   1.5207   0.02154   0.01662  -0.1330  0.3207  0.3078  -2.9410   0.0000   0.0000   0.0000   0.3055
   9.400   1.5274   0.02240   0.01749  -0.1317  0.3171  0.3150  -2.9476   0.0000   0.0000   0.0000   0.3037
   9.500   1.5299   0.02288   0.01796  -0.1310  0.3144  0.3181  -2.9500   0.0000   0.0000   0.0000   0.3028
   9.700   1.5381   0.02367   0.01874  -0.1299  0.3096  0.3207  -2.9616   0.0000   0.0000   0.0000   0.3011
   9.800   1.5340   0.02452   0.01958  -0.1285  0.3059  0.3211  -2.9621   0.0000   0.0000   0.0000   0.3001
   9.900   1.5367   0.02500   0.02004  -0.1279  0.3033  0.3214  -2.9655   0.0000   0.0000   0.0000   0.2993
  10.000   1.5387   0.02552   0.02056  -0.1271  0.2998  0.3215  -2.9626   0.0000   0.0000   0.0000   0.2984
  10.100   1.5365   0.02628   0.02130  -0.1260  0.2957  0.3216  -2.9655   0.0000   0.0000   0.0000   0.2974
  10.200   1.5289   0.02739   0.02238  -0.1243  0.2897  0.3217  -2.9444   0.0000   0.0000   0.0000   0.2964
  10.300   1.5244   0.02832   0.02328  -0.1230  0.2842  0.3218  -2.9425   0.0000   0.0000   0.0000   0.2954
  10.400   1.5253   0.02894   0.02389  -0.1223  0.2807  0.3219  -2.9341   0.0000   0.0000   0.0000   0.2946
  10.500   1.5206   0.02994   0.02489  -0.1210  0.2774  0.3220  -2.9181   0.0000   0.0000   0.0000   0.2937
  10.600   1.5206   0.03065   0.02558  -0.1203  0.2743  0.3221  -2.9201   0.0000   0.0000   0.0000   0.2928
  10.700   1.5242   0.03114   0.02607  -0.1198  0.2723  0.3223  -2.9196   0.0000   0.0000   0.0000   0.2921
  10.800   1.5281   0.03162   0.02656  -0.1194  0.2706  0.3224  -2.9163   0.0000   0.0000   0.0000   0.2914
  10.900   1.5278   0.03241   0.02735  -0.1187  0.2690  0.3225  -2.9059   0.0000   0.0000   0.0000   0.2906
  11.000   1.5299   0.03303   0.02798  -0.1182  0.2676  0.3226  -2.9084   0.0000   0.0000   0.0000   0.2899
  11.100   1.5333   0.03357   0.02851  -0.1178  0.2663  0.3227  -2.9136   0.0000   0.0000   0.0000   0.2892
  11.200   1.5379   0.03402   0.02896  -0.1175  0.2652  0.3228  -2.9192   0.0000   0.0000   0.0000   0.2885
  11.300   1.5432   0.03444   0.02938  -0.1173  0.2643  0.3229  -2.9241   0.0000   0.0000   0.0000   0.2878
  11.400   1.5433   0.03523   0.03018  -0.1166  0.2625  0.3230  -2.9190   0.0000   0.0000   0.0000   0.2871
  11.500   1.5445   0.03594   0.03090  -0.1161  0.2608  0.3231  -2.9121   0.0000   0.0000   0.0000   0.2864
  11.600   1.5471   0.03655   0.03150  -0.1157  0.2592  0.3232  -2.9122   0.0000   0.0000   0.0000   0.2857
  11.700   1.5498   0.03715   0.03210  -0.1153  0.2578  0.3233  -2.9170   0.0000   0.0000   0.0000   0.2850
  11.800   1.5529   0.03773   0.03269  -0.1149  0.2565  0.3234  -2.9218   0.0000   0.0000   0.0000   0.2844
  11.900   1.5524   0.03862   0.03358  -0.1143  0.2553  0.3235  -2.9211   0.0000   0.0000   0.0000   0.2837
  12.000   1.5565   0.03915   0.03413  -0.1141  0.2548  0.3236  -2.9248   0.0000   0.0000   0.0000   0.2831
  12.100   1.5617   0.03961   0.03459  -0.1139  0.2543  0.3237  -2.9295   0.0000   0.0000   0.0000   0.2825
  12.200   1.5661   0.04012   0.03510  -0.1137  0.2533  0.3238  -2.9318   0.0000   0.0000   0.0000   0.2818
  12.300   1.5692   0.04071   0.03570  -0.1133  0.2518  0.3238  -2.9290   0.0000   0.0000   0.0000   0.2812
  12.400   1.5708   0.04144   0.03643  -0.1129  0.2503  0.3239  -2.9290   0.0000   0.0000   0.0000   0.2806
  12.500   1.5680   0.04251   0.03752  -0.1122  0.2488  0.3240  -2.9266   0.0000   0.0000   0.0000   0.2799
  12.600   1.5697   0.04323   0.03824  -0.1118  0.2475  0.3241  -2.9298   0.0000   0.0000   0.0000   0.2793
  12.700   1.5725   0.04386   0.03887  -0.1115  0.2464  0.3242  -2.9340   0.0000   0.0000   0.0000   0.2787
  12.800   1.5761   0.04444   0.03945  -0.1113  0.2453  0.3242  -2.9383   0.0000   0.0000   0.0000   0.2781
  12.900   1.5789   0.04510   0.04012  -0.1110  0.2445  0.3243  -2.9398   0.0000   0.0000   0.0000   0.2775
  13.000   1.5764   0.04619   0.04122  -0.1104  0.2431  0.3244  -2.9320   0.0000   0.0000   0.0000   0.2769
  13.100   1.5743   0.04721   0.04224  -0.1097  0.2402  0.3244  -2.9249   0.0000   0.0000   0.0000   0.2763
  13.200   1.5707   0.04836   0.04338  -0.1090  0.2371  0.3245  -2.9242   0.0000   0.0000   0.0000   0.2757
  13.400   1.5596   0.05101   0.04604  -0.1074  0.2314  0.3246  -2.8997   0.0000   0.0000   0.0000   0.2744
  13.500   1.5532   0.05240   0.04743  -0.1065  0.2275  0.3247  -2.8964   0.0000   0.0000   0.0000   0.2738
  13.600   1.5428   0.05419   0.04922  -0.1055  0.2246  0.3247  -2.8826   0.0000   0.0000   0.0000   0.2732
  13.700   1.5349   0.05573   0.05075  -0.1046  0.2199  0.3247  -2.8638   0.0000   0.0000   0.0000   0.2726
  13.800   1.5094   0.05880   0.05381  -0.1027  0.2122  0.3247  -2.8249   0.0000   0.0000   0.0000   0.2720
  13.900   1.4691   0.06317   0.05815  -0.1000  0.2000  0.3247  -2.7605   0.0000   0.0000   0.0000   0.2714
  14.000   1.4266   0.06790   0.06285  -0.0973  0.1871  0.3246  -2.6931   0.0000   0.0000   0.0000   0.2710
  14.100   1.3841   0.07275   0.06767  -0.0949  0.1735  0.3245  -2.6265   0.0000   0.0000   0.0000   0.2707
  14.200   1.3419   0.07778   0.07266  -0.0927  0.1601  0.3244  -2.5671   0.0000   0.0000   0.0000   0.2706
  14.300   1.3068   0.08226   0.07713  -0.0910  0.1480  0.3244  -2.5148   0.0000   0.0000   0.0000   0.2707
  14.400   1.2821   0.08579   0.08065  -0.0898  0.1396  0.3244  -2.4765   0.0000   0.0000   0.0000   0.2707
  14.500   1.2710   0.08799   0.08283  -0.0892  0.1337  0.3244  -2.4577   0.0000   0.0000   0.0000   0.2705
  14.600   1.2629   0.08992   0.08476  -0.0888  0.1302  0.3244  -2.4427   0.0000   0.0000   0.0000   0.2703
  14.700   1.2538   0.09198   0.08682  -0.0883  0.1264  0.3245  -2.4265   0.0000   0.0000   0.0000   0.2701
  14.800   1.2530   0.09315   0.08799  -0.0882  0.1241  0.3245  -2.4231   0.0000   0.0000   0.0000   0.2698
  14.900   1.2522   0.09432   0.08916  -0.0880  0.1222  0.3246  -2.4196   0.0000   0.0000   0.0000   0.2694
  15.000   1.2451   0.09618   0.09104  -0.0877  0.1202  0.3246  -2.4059   0.0000   0.0000   0.0000   0.2693


