xflr5 v6.61

 Calculated polar for: Airfoil-RevE-HC

 1 1 Reynolds number fixed          Mach number fixed         

 xtrf =   1.000 (top)        1.000 (bottom)
 Mach =   0.450     Re =     6.000 e 6     Ncrit =   0.500

  alpha     CL        CD       CDp       Cm    Top Xtr Bot Xtr   Cpmin    Chinge    XCp    
 ------- -------- --------- --------- -------- ------- ------- -------- --------- ---------
 -12.000   0.0937   0.04009   0.03539  -0.2466  0.3560  0.0141  -6.3764   0.0000   0.0000   0.0000   3.3178
 -11.990   0.0930   0.03998   0.03528  -0.2466  0.3560  0.0141  -6.3777   0.0000   0.0000   0.0000   3.3410
 -11.980   0.0922   0.03987   0.03517  -0.2466  0.3560  0.0141  -6.3793   0.0000   0.0000   0.0000   3.3670
 -11.970   0.0913   0.03975   0.03505  -0.2466  0.3560  0.0141  -6.3815   0.0000   0.0000   0.0000   3.3963
 -11.960   0.0904   0.03963   0.03493  -0.2466  0.3560  0.0141  -6.3840   0.0000   0.0000   0.0000   3.4283
 -11.950   0.0895   0.03951   0.03481  -0.2466  0.3560  0.0141  -6.3863   0.0000   0.0000   0.0000   3.4600
 -11.940   0.0886   0.03939   0.03469  -0.2465  0.3560  0.0141  -6.3883   0.0000   0.0000   0.0000   3.4900
 -11.930   0.0879   0.03929   0.03458  -0.2465  0.3560  0.0141  -6.3894   0.0000   0.0000   0.0000   3.5155
 -11.920   0.0874   0.03919   0.03448  -0.2465  0.3560  0.0141  -6.3895   0.0000   0.0000   0.0000   3.5353
 -11.910   0.0870   0.03910   0.03439  -0.2465  0.3560  0.0141  -6.3889   0.0000   0.0000   0.0000   3.5508
 -11.900   0.0865   0.03901   0.03431  -0.2464  0.3560  0.0141  -6.3882   0.0000   0.0000   0.0000   3.5659
 -11.890   0.0861   0.03893   0.03422  -0.2464  0.3559  0.0141  -6.3877   0.0000   0.0000   0.0000   3.5818
 -11.880   0.0857   0.03884   0.03413  -0.2464  0.3559  0.0141  -6.3871   0.0000   0.0000   0.0000   3.5980
 -11.870   0.0852   0.03875   0.03404  -0.2463  0.3559  0.0141  -6.3865   0.0000   0.0000   0.0000   3.6144
 -11.860   0.0848   0.03866   0.03395  -0.2463  0.3559  0.0141  -6.3859   0.0000   0.0000   0.0000   3.6311
 -11.850   0.0843   0.03857   0.03386  -0.2463  0.3559  0.0141  -6.3853   0.0000   0.0000   0.0000   3.6481
 -11.840   0.0839   0.03849   0.03377  -0.2462  0.3559  0.0141  -6.3848   0.0000   0.0000   0.0000   3.6656
 -11.830   0.0834   0.03840   0.03368  -0.2462  0.3559  0.0141  -6.3843   0.0000   0.0000   0.0000   3.6836
 -11.820   0.0830   0.03831   0.03360  -0.2462  0.3559  0.0141  -6.3838   0.0000   0.0000   0.0000   3.7021
 -11.810   0.0825   0.03822   0.03351  -0.2461  0.3559  0.0141  -6.3834   0.0000   0.0000   0.0000   3.7214
 -11.800   0.0820   0.03813   0.03342  -0.2461  0.3559  0.0141  -6.3831   0.0000   0.0000   0.0000   3.7414
 -11.790   0.0815   0.03804   0.03332  -0.2461  0.3558  0.0141  -6.3829   0.0000   0.0000   0.0000   3.7624
 -11.780   0.0809   0.03795   0.03323  -0.2460  0.3558  0.0141  -6.3827   0.0000   0.0000   0.0000   3.7847
 -11.770   0.0804   0.03785   0.03314  -0.2460  0.3558  0.0141  -6.3828   0.0000   0.0000   0.0000   3.8084
 -11.760   0.0798   0.03776   0.03304  -0.2460  0.3558  0.0141  -6.3830   0.0000   0.0000   0.0000   3.8340
 -11.750   0.0791   0.03766   0.03294  -0.2459  0.3558  0.0141  -6.3834   0.0000   0.0000   0.0000   3.8619
 -11.740   0.0785   0.03756   0.03284  -0.2459  0.3558  0.0141  -6.3842   0.0000   0.0000   0.0000   3.8927
 -11.730   0.0777   0.03746   0.03274  -0.2459  0.3558  0.0141  -6.3854   0.0000   0.0000   0.0000   3.9280
 -11.720   0.0768   0.03735   0.03263  -0.2458  0.3558  0.0141  -6.3870   0.0000   0.0000   0.0000   3.9678
 -11.710   0.0759   0.03724   0.03251  -0.2458  0.3558  0.0141  -6.3892   0.0000   0.0000   0.0000   4.0129
 -11.700   0.0749   0.03712   0.03240  -0.2458  0.3558  0.0141  -6.3917   0.0000   0.0000   0.0000   4.0622
 -11.690   0.0739   0.03700   0.03228  -0.2457  0.3558  0.0141  -6.3940   0.0000   0.0000   0.0000   4.1115
 -11.680   0.0730   0.03689   0.03217  -0.2457  0.3557  0.0141  -6.3959   0.0000   0.0000   0.0000   4.1584
 -11.670   0.0723   0.03679   0.03207  -0.2457  0.3557  0.0141  -6.3970   0.0000   0.0000   0.0000   4.1984
 -11.660   0.0717   0.03670   0.03197  -0.2456  0.3557  0.0141  -6.3971   0.0000   0.0000   0.0000   4.2303
 -11.650   0.0712   0.03662   0.03189  -0.2456  0.3557  0.0141  -6.3964   0.0000   0.0000   0.0000   4.2554
 -11.640   0.0707   0.03653   0.03181  -0.2455  0.3557  0.0141  -6.3956   0.0000   0.0000   0.0000   4.2795
 -11.630   0.0703   0.03645   0.03172  -0.2455  0.3557  0.0141  -6.3949   0.0000   0.0000   0.0000   4.3045
 -11.620   0.0698   0.03637   0.03164  -0.2454  0.3557  0.0141  -6.3941   0.0000   0.0000   0.0000   4.3302
 -11.610   0.0693   0.03629   0.03156  -0.2454  0.3557  0.0141  -6.3934   0.0000   0.0000   0.0000   4.3563
 -11.600   0.0689   0.03621   0.03148  -0.2454  0.3557  0.0141  -6.3927   0.0000   0.0000   0.0000   4.3828
 -11.590   0.0684   0.03613   0.03140  -0.2453  0.3557  0.0141  -6.3919   0.0000   0.0000   0.0000   4.4099
 -11.580   0.0679   0.03604   0.03131  -0.2453  0.3557  0.0141  -6.3912   0.0000   0.0000   0.0000   4.4376
 -11.570   0.0675   0.03596   0.03123  -0.2452  0.3556  0.0141  -6.3905   0.0000   0.0000   0.0000   4.4661
 -11.560   0.0670   0.03588   0.03115  -0.2452  0.3556  0.0141  -6.3899   0.0000   0.0000   0.0000   4.4957
 -11.550   0.0665   0.03580   0.03106  -0.2451  0.3556  0.0141  -6.3892   0.0000   0.0000   0.0000   4.5258
 -11.540   0.0660   0.03571   0.03098  -0.2450  0.3556  0.0141  -6.3888   0.0000   0.0000   0.0000   4.5582
 -11.530   0.0654   0.03563   0.03090  -0.2450  0.3556  0.0141  -6.3883   0.0000   0.0000   0.0000   4.5919
 -11.520   0.0649   0.03555   0.03081  -0.2449  0.3556  0.0141  -6.3880   0.0000   0.0000   0.0000   4.6271
 -11.510   0.0643   0.03546   0.03073  -0.2449  0.3556  0.0141  -6.3877   0.0000   0.0000   0.0000   4.6642
 -11.500   0.0637   0.03537   0.03064  -0.2448  0.3556  0.0141  -6.3875   0.0000   0.0000   0.0000   4.7036
 -11.490   0.0631   0.03529   0.03055  -0.2448  0.3556  0.0141  -6.3876   0.0000   0.0000   0.0000   4.7458
 -11.480   0.0624   0.03520   0.03046  -0.2447  0.3556  0.0141  -6.3878   0.0000   0.0000   0.0000   4.7920
 -11.470   0.0617   0.03511   0.03037  -0.2447  0.3556  0.0141  -6.3883   0.0000   0.0000   0.0000   4.8422
 -11.460   0.0610   0.03501   0.03028  -0.2446  0.3555  0.0141  -6.3890   0.0000   0.0000   0.0000   4.8973
 -11.450   0.0602   0.03492   0.03018  -0.2446  0.3555  0.0141  -6.3901   0.0000   0.0000   0.0000   4.9588
 -11.440   0.0593   0.03482   0.03008  -0.2445  0.3555  0.0141  -6.3915   0.0000   0.0000   0.0000   5.0280
 -11.430   0.0583   0.03471   0.02997  -0.2445  0.3555  0.0141  -6.3936   0.0000   0.0000   0.0000   5.1075
 -11.420   0.0572   0.03460   0.02986  -0.2444  0.3555  0.0141  -6.3961   0.0000   0.0000   0.0000   5.1979
 -11.410   0.0561   0.03449   0.02975  -0.2444  0.3555  0.0141  -6.3986   0.0000   0.0000   0.0000   5.2907
 -11.400   0.0551   0.03438   0.02964  -0.2443  0.3555  0.0141  -6.4008   0.0000   0.0000   0.0000   5.3843
 -11.390   0.0541   0.03429   0.02954  -0.2442  0.3555  0.0141  -6.4025   0.0000   0.0000   0.0000   5.4716
 -11.380   0.0534   0.03419   0.02945  -0.2442  0.3555  0.0141  -6.4032   0.0000   0.0000   0.0000   5.5463
 -11.370   0.0527   0.03411   0.02937  -0.2441  0.3555  0.0141  -6.4032   0.0000   0.0000   0.0000   5.6093
 -11.360   0.0521   0.03404   0.02929  -0.2440  0.3555  0.0141  -6.4027   0.0000   0.0000   0.0000   5.6657
 -11.350   0.0516   0.03396   0.02921  -0.2440  0.3555  0.0141  -6.4022   0.0000   0.0000   0.0000   5.7233
 -11.340   0.0510   0.03388   0.02914  -0.2439  0.3554  0.0141  -6.4017   0.0000   0.0000   0.0000   5.7825
 -11.330   0.0504   0.03381   0.02906  -0.2438  0.3554  0.0141  -6.4012   0.0000   0.0000   0.0000   5.8432
 -11.320   0.0498   0.03373   0.02898  -0.2438  0.3554  0.0141  -6.4007   0.0000   0.0000   0.0000   5.9058
 -11.310   0.0493   0.03365   0.02891  -0.2437  0.3554  0.0141  -6.4002   0.0000   0.0000   0.0000   5.9704
 -11.300   0.0487   0.03358   0.02883  -0.2436  0.3554  0.0141  -6.3998   0.0000   0.0000   0.0000   6.0373
 -11.290   0.0481   0.03350   0.02875  -0.2435  0.3554  0.0141  -6.3994   0.0000   0.0000   0.0000   6.1066
 -11.280   0.0475   0.03342   0.02867  -0.2435  0.3554  0.0141  -6.3990   0.0000   0.0000   0.0000   6.1788
 -11.270   0.0469   0.03335   0.02860  -0.2434  0.3554  0.0141  -6.3986   0.0000   0.0000   0.0000   6.2541
 -11.260   0.0462   0.03327   0.02852  -0.2433  0.3554  0.0141  -6.3984   0.0000   0.0000   0.0000   6.3330
 -11.250   0.0456   0.03319   0.02844  -0.2432  0.3554  0.0141  -6.3982   0.0000   0.0000   0.0000   6.4159
 -11.240   0.0449   0.03311   0.02836  -0.2432  0.3554  0.0141  -6.3980   0.0000   0.0000   0.0000   6.5030
 -11.230   0.0443   0.03303   0.02828  -0.2431  0.3554  0.0141  -6.3980   0.0000   0.0000   0.0000   6.5953
 -11.220   0.0436   0.03295   0.02820  -0.2430  0.3553  0.0141  -6.3980   0.0000   0.0000   0.0000   6.6938
 -11.210   0.0428   0.03287   0.02812  -0.2429  0.3553  0.0141  -6.3982   0.0000   0.0000   0.0000   6.7995
 -11.200   0.0421   0.03278   0.02803  -0.2428  0.3553  0.0141  -6.3986   0.0000   0.0000   0.0000   6.9138
 -11.190   0.0413   0.03270   0.02795  -0.2428  0.3553  0.0141  -6.3991   0.0000   0.0000   0.0000   7.0384
 -11.180   0.0405   0.03261   0.02786  -0.2427  0.3553  0.0141  -6.3999   0.0000   0.0000   0.0000   7.1758
 -11.170   0.0396   0.03252   0.02777  -0.2426  0.3553  0.0141  -6.4010   0.0000   0.0000   0.0000   7.3288
 -11.160   0.0386   0.03243   0.02768  -0.2425  0.3553  0.0141  -6.4025   0.0000   0.0000   0.0000   7.5015
 -11.150   0.0376   0.03233   0.02758  -0.2424  0.3553  0.0141  -6.4043   0.0000   0.0000   0.0000   7.6987
 -11.140   0.0365   0.03223   0.02748  -0.2424  0.3553  0.0141  -6.4067   0.0000   0.0000   0.0000   7.9256
 -11.130   0.0353   0.03213   0.02737  -0.2423  0.3553  0.0141  -6.4092   0.0000   0.0000   0.0000   8.1763
 -11.120   0.0341   0.03203   0.02727  -0.2422  0.3553  0.0141  -6.4116   0.0000   0.0000   0.0000   8.4374
 -11.110   0.0331   0.03193   0.02718  -0.2421  0.3553  0.0141  -6.4136   0.0000   0.0000   0.0000   8.7003
 -11.100   0.0321   0.03184   0.02709  -0.2420  0.3553  0.0141  -6.4149   0.0000   0.0000   0.0000   8.9458
 -11.090   0.0313   0.03176   0.02700  -0.2419  0.3552  0.0141  -6.4154   0.0000   0.0000   0.0000   9.1650
 -11.080   0.0306   0.03169   0.02693  -0.2418  0.3552  0.0141  -6.4152   0.0000   0.0000   0.0000   9.3602
 -11.070   0.0300   0.03161   0.02685  -0.2417  0.3552  0.0142  -6.4149   0.0000   0.0000   0.0000   9.5566
 -11.060   0.0293   0.03154   0.02678  -0.2416  0.3552  0.0142  -6.4146   0.0000   0.0000   0.0000   9.7632
 -11.050   0.0286   0.03147   0.02671  -0.2415  0.3552  0.0142  -6.4143   0.0000   0.0000   0.0000   9.9810
 -11.040   0.0280   0.03139   0.02663  -0.2414  0.3552  0.0142  -6.4140   0.0000   0.0000   0.0000  10.2115
 -11.030   0.0273   0.03132   0.02656  -0.2414  0.3552  0.0142  -6.4137   0.0000   0.0000   0.0000  10.4560
 -11.020   0.0266   0.03125   0.02649  -0.2413  0.3552  0.0142  -6.4135   0.0000   0.0000   0.0000  10.7165
 -11.010   0.0259   0.03117   0.02641  -0.2412  0.3552  0.0142  -6.4133   0.0000   0.0000   0.0000  10.9949
 -11.000   0.0252   0.03110   0.02634  -0.2411  0.3552  0.0142  -6.4132   0.0000   0.0000   0.0000  11.2937
 -10.990   0.0244   0.03103   0.02626  -0.2410  0.3551  0.0142  -6.4131   0.0000   0.0000   0.0000  11.6162
 -10.980   0.0237   0.03095   0.02619  -0.2409  0.3551  0.0142  -6.4131   0.0000   0.0000   0.0000  11.9657
 -10.970   0.0229   0.03088   0.02611  -0.2408  0.3551  0.0142  -6.4132   0.0000   0.0000   0.0000  12.3460
 -10.960   0.0222   0.03080   0.02604  -0.2406  0.3551  0.0142  -6.4133   0.0000   0.0000   0.0000  12.7623
 -10.950   0.0214   0.03072   0.02596  -0.2405  0.3551  0.0142  -6.4136   0.0000   0.0000   0.0000  13.2229
 -10.940   0.0205   0.03065   0.02588  -0.2404  0.3551  0.0142  -6.4140   0.0000   0.0000   0.0000  13.7373
 -10.930   0.0197   0.03057   0.02580  -0.2403  0.3551  0.0142  -6.4146   0.0000   0.0000   0.0000  14.3177
 -10.920   0.0188   0.03049   0.02572  -0.2402  0.3551  0.0142  -6.4153   0.0000   0.0000   0.0000  14.9809
 -10.910   0.0178   0.03040   0.02564  -0.2401  0.3551  0.0142  -6.4163   0.0000   0.0000   0.0000  15.7498
 -10.900   0.0168   0.03032   0.02555  -0.2400  0.3551  0.0142  -6.4176   0.0000   0.0000   0.0000  16.6572
 -10.890   0.0158   0.03023   0.02546  -0.2399  0.3551  0.0142  -6.4192   0.0000   0.0000   0.0000  17.7502
 -10.880   0.0147   0.03014   0.02537  -0.2398  0.3551  0.0142  -6.4212   0.0000   0.0000   0.0000  19.0974
 -10.870   0.0134   0.03004   0.02528  -0.2397  0.3551  0.0142  -6.4236   0.0000   0.0000   0.0000  20.7942
 -10.860   0.0122   0.02995   0.02518  -0.2396  0.3551  0.0142  -6.4262   0.0000   0.0000   0.0000  22.8851
 -10.850   0.0110   0.02985   0.02509  -0.2394  0.3550  0.0142  -6.4286   0.0000   0.0000   0.0000  25.3953
 -10.840   0.0098   0.02976   0.02500  -0.2393  0.3550  0.0142  -6.4307   0.0000   0.0000   0.0000  28.3793
 -10.830   0.0087   0.02968   0.02491  -0.2392  0.3550  0.0142  -6.4322   0.0000   0.0000   0.0000  31.7640
 -10.820   0.0078   0.02960   0.02483  -0.2391  0.3550  0.0142  -6.4330   0.0000   0.0000   0.0000  35.4956
 -10.810   0.0070   0.02953   0.02476  -0.2390  0.3550  0.0142  -6.4331   0.0000   0.0000   0.0000  39.6148
 -10.800   0.0062   0.02946   0.02469  -0.2388  0.3550  0.0142  -6.4332   0.0000   0.0000   0.0000  44.6741
 -10.790   0.0054   0.02939   0.02462  -0.2387  0.3550  0.0142  -6.4333   0.0000   0.0000   0.0000  51.3108
 -10.780   0.0046   0.02932   0.02455  -0.2386  0.3550  0.0142  -6.4334   0.0000   0.0000   0.0000  60.4125
 -10.770   0.0037   0.02925   0.02448  -0.2385  0.3550  0.0142  -6.4335   0.0000   0.0000   0.0000  73.6901
 -10.760   0.0029   0.02918   0.02441  -0.2383  0.3550  0.0142  -6.4337   0.0000   0.0000   0.0000  94.9111
 -10.750   0.0020   0.02911   0.02434  -0.2382  0.3550  0.0142  -6.4340   0.0000   0.0000   0.0000  134.3348
 -10.740   0.0012   0.02904   0.02427  -0.2381  0.3549  0.0142  -6.4343   0.0000   0.0000   0.0000  233.2620
 -10.730   0.0003   0.02897   0.02420  -0.2379  0.3549  0.0142  -6.4347   0.0000   0.0000   0.0000  946.1332
 -10.720  -0.0006   0.02889   0.02412  -0.2378  0.3549  0.0142  -6.4352   0.0000   0.0000   0.0000  -443.3873
 -10.710  -0.0015   0.02882   0.02405  -0.2377  0.3549  0.0142  -6.4358   0.0000   0.0000   0.0000  -176.9592
 -10.700  -0.0025   0.02875   0.02398  -0.2375  0.3549  0.0142  -6.4365   0.0000   0.0000   0.0000  -109.3332
 -10.690  -0.0035   0.02868   0.02390  -0.2374  0.3549  0.0142  -6.4373   0.0000   0.0000   0.0000  -78.3577
 -10.680  -0.0045   0.02860   0.02383  -0.2372  0.3549  0.0142  -6.4383   0.0000   0.0000   0.0000  -60.5461
 -10.670  -0.0055   0.02852   0.02375  -0.2371  0.3549  0.0142  -6.4395   0.0000   0.0000   0.0000  -48.9434
 -10.660  -0.0066   0.02845   0.02367  -0.2370  0.3549  0.0142  -6.4410   0.0000   0.0000   0.0000  -40.7572
 -10.650  -0.0078   0.02836   0.02359  -0.2368  0.3549  0.0142  -6.4427   0.0000   0.0000   0.0000  -34.6493
 -10.640  -0.0090   0.02828   0.02351  -0.2367  0.3548  0.0142  -6.4447   0.0000   0.0000   0.0000  -29.9007
 -10.630  -0.0103   0.02820   0.02342  -0.2365  0.3548  0.0142  -6.4471   0.0000   0.0000   0.0000  -26.0941
 -10.620  -0.0117   0.02811   0.02333  -0.2364  0.3548  0.0142  -6.4499   0.0000   0.0000   0.0000  -22.9808
 -10.610  -0.0131   0.02802   0.02324  -0.2362  0.3548  0.0142  -6.4528   0.0000   0.0000   0.0000  -20.4776
 -10.600  -0.0145   0.02793   0.02316  -0.2360  0.3548  0.0142  -6.4556   0.0000   0.0000   0.0000  -18.4835
 -10.590  -0.0158   0.02784   0.02307  -0.2359  0.3548  0.0142  -6.4582   0.0000   0.0000   0.0000  -16.8819
 -10.580  -0.0171   0.02776   0.02299  -0.2357  0.3548  0.0142  -6.4602   0.0000   0.0000   0.0000  -15.6174
 -10.570  -0.0182   0.02769   0.02292  -0.2356  0.3548  0.0142  -6.4617   0.0000   0.0000   0.0000  -14.6158
 -10.560  -0.0192   0.02762   0.02285  -0.2354  0.3548  0.0142  -6.4626   0.0000   0.0000   0.0000  -13.8033
 -10.550  -0.0203   0.02755   0.02278  -0.2352  0.3548  0.0142  -6.4633   0.0000   0.0000   0.0000  -13.0855
 -10.540  -0.0213   0.02749   0.02271  -0.2351  0.3547  0.0142  -6.4642   0.0000   0.0000   0.0000  -12.4275
 -10.530  -0.0223   0.02742   0.02265  -0.2349  0.3547  0.0142  -6.4651   0.0000   0.0000   0.0000  -11.8215
 -10.520  -0.0234   0.02735   0.02258  -0.2347  0.3547  0.0142  -6.4661   0.0000   0.0000   0.0000  -11.2608
 -10.510  -0.0245   0.02729   0.02251  -0.2346  0.3547  0.0142  -6.4671   0.0000   0.0000   0.0000  -10.7398
 -10.500  -0.0256   0.02722   0.02244  -0.2344  0.3547  0.0142  -6.4683   0.0000   0.0000   0.0000  -10.2538
 -10.490  -0.0268   0.02715   0.02238  -0.2342  0.3547  0.0142  -6.4696   0.0000   0.0000   0.0000  -9.7986
 -10.480  -0.0279   0.02708   0.02231  -0.2340  0.3547  0.0142  -6.4710   0.0000   0.0000   0.0000  -9.3707
 -10.470  -0.0291   0.02701   0.02224  -0.2338  0.3547  0.0142  -6.4725   0.0000   0.0000   0.0000  -8.9683
 -10.460  -0.0303   0.02694   0.02217  -0.2336  0.3547  0.0142  -6.4742   0.0000   0.0000   0.0000  -8.5872
 -10.450  -0.0316   0.02687   0.02210  -0.2335  0.3546  0.0142  -6.4761   0.0000   0.0000   0.0000  -8.2248
 -10.440  -0.0329   0.02680   0.02202  -0.2333  0.3546  0.0142  -6.4782   0.0000   0.0000   0.0000  -7.8788
 -10.430  -0.0343   0.02672   0.02195  -0.2331  0.3546  0.0142  -6.4805   0.0000   0.0000   0.0000  -7.5470
 -10.420  -0.0358   0.02665   0.02188  -0.2329  0.3546  0.0142  -6.4833   0.0000   0.0000   0.0000  -7.2194
 -10.410  -0.0374   0.02657   0.02180  -0.2326  0.3546  0.0142  -6.4868   0.0000   0.0000   0.0000  -6.8867
 -10.400  -0.0392   0.02649   0.02172  -0.2324  0.3546  0.0142  -6.4910   0.0000   0.0000   0.0000  -6.5487
 -10.390  -0.0413   0.02642   0.02165  -0.2321  0.3546  0.0142  -6.4961   0.0000   0.0000   0.0000  -6.2066
 -10.380  -0.0435   0.02634   0.02157  -0.2318  0.3546  0.0142  -6.5020   0.0000   0.0000   0.0000  -5.8683
 -10.370  -0.0458   0.02627   0.02150  -0.2314  0.3546  0.0142  -6.5084   0.0000   0.0000   0.0000  -5.5430
 -10.360  -0.0484   0.02620   0.02143  -0.2310  0.3546  0.0142  -6.5154   0.0000   0.0000   0.0000  -5.2309
 -10.350  -0.0510   0.02614   0.02137  -0.2306  0.3545  0.0142  -6.5227   0.0000   0.0000   0.0000  -4.9391
 -10.340  -0.0537   0.02608   0.02132  -0.2302  0.3545  0.0142  -6.5301   0.0000   0.0000   0.0000  -4.6719
 -10.330  -0.0564   0.02603   0.02126  -0.2298  0.3545  0.0142  -6.5372   0.0000   0.0000   0.0000  -4.4303
 -10.320  -0.0590   0.02598   0.02122  -0.2293  0.3545  0.0142  -6.5443   0.0000   0.0000   0.0000  -4.2122
 -10.310  -0.0617   0.02593   0.02117  -0.2289  0.3545  0.0142  -6.5514   0.0000   0.0000   0.0000  -4.0114
 -10.300  -0.0643   0.02588   0.02112  -0.2284  0.3545  0.0142  -6.5585   0.0000   0.0000   0.0000  -3.8275
 -10.290  -0.0670   0.02583   0.02107  -0.2280  0.3545  0.0142  -6.5655   0.0000   0.0000   0.0000  -3.6596
 -10.280  -0.0696   0.02578   0.02102  -0.2275  0.3545  0.0142  -6.5724   0.0000   0.0000   0.0000  -3.5062
 -10.270  -0.0721   0.02572   0.02097  -0.2271  0.3545  0.0142  -6.5792   0.0000   0.0000   0.0000  -3.3657
 -10.260  -0.0747   0.02567   0.02092  -0.2267  0.3545  0.0142  -6.5860   0.0000   0.0000   0.0000  -3.2364
 -10.250  -0.0772   0.02561   0.02086  -0.2263  0.3545  0.0142  -6.5926   0.0000   0.0000   0.0000  -3.1169
 -10.240  -0.0797   0.02555   0.02081  -0.2259  0.3545  0.0142  -6.5992   0.0000   0.0000   0.0000  -3.0060
 -10.230  -0.0822   0.02550   0.02075  -0.2255  0.3545  0.0142  -6.6058   0.0000   0.0000   0.0000  -2.9023
 -10.220  -0.0847   0.02544   0.02069  -0.2251  0.3544  0.0142  -6.6124   0.0000   0.0000   0.0000  -2.8048
 -10.210  -0.0871   0.02537   0.02063  -0.2247  0.3544  0.0142  -6.6191   0.0000   0.0000   0.0000  -2.7125
 -10.200  -0.0897   0.02531   0.02057  -0.2243  0.3544  0.0142  -6.6259   0.0000   0.0000   0.0000  -2.6247
 -10.190  -0.0922   0.02524   0.02051  -0.2239  0.3544  0.0142  -6.6329   0.0000   0.0000   0.0000  -2.5406
 -10.180  -0.0948   0.02518   0.02044  -0.2235  0.3544  0.0142  -6.6401   0.0000   0.0000   0.0000  -2.4598
 -10.170  -0.0974   0.02510   0.02037  -0.2231  0.3544  0.0142  -6.6477   0.0000   0.0000   0.0000  -2.3818
 -10.160  -0.1001   0.02503   0.02030  -0.2227  0.3544  0.0142  -6.6556   0.0000   0.0000   0.0000  -2.3064
 -10.150  -0.1029   0.02496   0.02023  -0.2224  0.3544  0.0142  -6.6634   0.0000   0.0000   0.0000  -2.2349
 -10.140  -0.1055   0.02489   0.02015  -0.2220  0.3544  0.0142  -6.6712   0.0000   0.0000   0.0000  -2.1675
 -10.130  -0.1082   0.02481   0.02008  -0.2216  0.3544  0.0142  -6.6788   0.0000   0.0000   0.0000  -2.1041
 -10.120  -0.1108   0.02475   0.02002  -0.2212  0.3544  0.0142  -6.6861   0.0000   0.0000   0.0000  -2.0451
 -10.110  -0.1133   0.02468   0.01996  -0.2208  0.3544  0.0142  -6.6930   0.0000   0.0000   0.0000  -1.9905
 -10.100  -0.1158   0.02462   0.01990  -0.2204  0.3543  0.0142  -6.6994   0.0000   0.0000   0.0000  -1.9398
 -10.090  -0.1182   0.02456   0.01984  -0.2201  0.3543  0.0142  -6.7058   0.0000   0.0000   0.0000  -1.8909
 -10.080  -0.1207   0.02450   0.01978  -0.2197  0.3543  0.0142  -6.7125   0.0000   0.0000   0.0000  -1.8431
 -10.070  -0.1233   0.02444   0.01972  -0.2193  0.3543  0.0142  -6.7195   0.0000   0.0000   0.0000  -1.7961
 -10.060  -0.1259   0.02438   0.01967  -0.2189  0.3543  0.0142  -6.7268   0.0000   0.0000   0.0000  -1.7497
 -10.050  -0.1286   0.02432   0.01961  -0.2185  0.3543  0.0142  -6.7345   0.0000   0.0000   0.0000  -1.7039
 -10.040  -0.1314   0.02426   0.01955  -0.2180  0.3543  0.0142  -6.7426   0.0000   0.0000   0.0000  -1.6585
 -10.030  -0.1344   0.02420   0.01949  -0.2176  0.3543  0.0142  -6.7512   0.0000   0.0000   0.0000  -1.6132
 -10.020  -0.1374   0.02414   0.01943  -0.2172  0.3543  0.0142  -6.7604   0.0000   0.0000   0.0000  -1.5679
 -10.010  -0.1407   0.02407   0.01937  -0.2167  0.3543  0.0142  -6.7704   0.0000   0.0000   0.0000  -1.5223
 -10.000  -0.1441   0.02401   0.01930  -0.2162  0.3543  0.0142  -6.7813   0.0000   0.0000   0.0000  -1.4763
  -9.990  -0.1478   0.02395   0.01924  -0.2157  0.3543  0.0142  -6.7930   0.0000   0.0000   0.0000  -1.4300
  -9.980  -0.1517   0.02388   0.01918  -0.2151  0.3543  0.0142  -6.8060   0.0000   0.0000   0.0000  -1.3826
  -9.970  -0.1559   0.02382   0.01912  -0.2145  0.3543  0.0142  -6.8202   0.0000   0.0000   0.0000  -1.3344
  -9.960  -0.1603   0.02375   0.01906  -0.2139  0.3543  0.0142  -6.8351   0.0000   0.0000   0.0000  -1.2869
  -9.950  -0.1649   0.02369   0.01900  -0.2132  0.3543  0.0142  -6.8510   0.0000   0.0000   0.0000  -1.2396
  -9.940  -0.1697   0.02364   0.01895  -0.2126  0.3543  0.0142  -6.8674   0.0000   0.0000   0.0000  -1.1935
  -9.930  -0.1745   0.02359   0.01891  -0.2118  0.3543  0.0142  -6.8841   0.0000   0.0000   0.0000  -1.1492
  -9.920  -0.1797   0.02355   0.01887  -0.2111  0.3543  0.0142  -6.9019   0.0000   0.0000   0.0000  -1.1046
  -9.910  -0.1848   0.02351   0.01884  -0.2103  0.3543  0.0142  -6.9197   0.0000   0.0000   0.0000  -1.0621
  -9.900  -0.1896   0.02347   0.01880  -0.2095  0.3543  0.0142  -6.9357   0.0000   0.0000   0.0000  -1.0254
  -9.890  -0.1935   0.02342   0.01875  -0.2089  0.3543  0.0142  -6.9486   0.0000   0.0000   0.0000  -0.9961
  -9.880  -0.1966   0.02335   0.01869  -0.2085  0.3543  0.0142  -6.9579   0.0000   0.0000   0.0000  -0.9741
  -9.870  -0.1990   0.02328   0.01862  -0.2082  0.3542  0.0142  -6.9646   0.0000   0.0000   0.0000  -0.9573
  -9.860  -0.2012   0.02320   0.01854  -0.2079  0.3542  0.0142  -6.9705   0.0000   0.0000   0.0000  -0.9422
  -9.850  -0.2034   0.02311   0.01845  -0.2076  0.3542  0.0142  -6.9763   0.0000   0.0000   0.0000  -0.9277
  -9.840  -0.2056   0.02303   0.01837  -0.2073  0.3542  0.0142  -6.9820   0.0000   0.0000   0.0000  -0.9138
  -9.830  -0.2077   0.02294   0.01828  -0.2070  0.3542  0.0142  -6.9875   0.0000   0.0000   0.0000  -0.9006
  -9.820  -0.2098   0.02284   0.01818  -0.2068  0.3542  0.0142  -6.9931   0.0000   0.0000   0.0000  -0.8877
  -9.810  -0.2118   0.02275   0.01809  -0.2065  0.3542  0.0142  -6.9981   0.0000   0.0000   0.0000  -0.8758
  -9.800  -0.2137   0.02266   0.01800  -0.2063  0.3542  0.0142  -7.0029   0.0000   0.0000   0.0000  -0.8644
  -9.790  -0.2155   0.02256   0.01790  -0.2061  0.3542  0.0142  -7.0072   0.0000   0.0000   0.0000  -0.8539
  -9.780  -0.2172   0.02248   0.01782  -0.2059  0.3541  0.0142  -7.0109   0.0000   0.0000   0.0000  -0.8441
  -9.770  -0.2187   0.02239   0.01773  -0.2057  0.3541  0.0142  -7.0140   0.0000   0.0000   0.0000  -0.8351
  -9.760  -0.2203   0.02230   0.01764  -0.2055  0.3541  0.0142  -7.0169   0.0000   0.0000   0.0000  -0.8266
  -9.750  -0.2218   0.02221   0.01755  -0.2053  0.3541  0.0142  -7.0197   0.0000   0.0000   0.0000  -0.8183
  -9.740  -0.2232   0.02212   0.01746  -0.2051  0.3541  0.0142  -7.0226   0.0000   0.0000   0.0000  -0.8102
  -9.730  -0.2247   0.02203   0.01737  -0.2049  0.3541  0.0142  -7.0255   0.0000   0.0000   0.0000  -0.8022
  -9.720  -0.2263   0.02193   0.01727  -0.2048  0.3540  0.0142  -7.0287   0.0000   0.0000   0.0000  -0.7940
  -9.710  -0.2279   0.02184   0.01718  -0.2046  0.3540  0.0142  -7.0320   0.0000   0.0000   0.0000  -0.7857
  -9.700  -0.2295   0.02174   0.01708  -0.2044  0.3540  0.0142  -7.0354   0.0000   0.0000   0.0000  -0.7776
  -9.690  -0.2310   0.02165   0.01699  -0.2042  0.3540  0.0142  -7.0385   0.0000   0.0000   0.0000  -0.7697
  -9.680  -0.2325   0.02156   0.01690  -0.2040  0.3540  0.0142  -7.0413   0.0000   0.0000   0.0000  -0.7622
  -9.670  -0.2339   0.02148   0.01681  -0.2038  0.3540  0.0142  -7.0437   0.0000   0.0000   0.0000  -0.7552
  -9.660  -0.2353   0.02139   0.01672  -0.2037  0.3540  0.0142  -7.0459   0.0000   0.0000   0.0000  -0.7484
  -9.650  -0.2366   0.02130   0.01663  -0.2035  0.3539  0.0142  -7.0480   0.0000   0.0000   0.0000  -0.7419
  -9.640  -0.2379   0.02121   0.01654  -0.2034  0.3539  0.0142  -7.0500   0.0000   0.0000   0.0000  -0.7357
  -9.630  -0.2392   0.02111   0.01644  -0.2032  0.3539  0.0142  -7.0519   0.0000   0.0000   0.0000  -0.7298
  -9.620  -0.2403   0.02101   0.01635  -0.2031  0.3539  0.0142  -7.0534   0.0000   0.0000   0.0000  -0.7244
  -9.610  -0.2414   0.02092   0.01625  -0.2030  0.3539  0.0142  -7.0546   0.0000   0.0000   0.0000  -0.7193
  -9.600  -0.2425   0.02082   0.01615  -0.2029  0.3538  0.0142  -7.0554   0.0000   0.0000   0.0000  -0.7146
  -9.590  -0.2434   0.02073   0.01601  -0.2028  0.3538  0.0142  -7.0557   0.0000   0.0000   0.0000  -0.7104
  -9.580  -0.2442   0.02064   0.01597  -0.2027  0.3538  0.0142  -7.0556   0.0000   0.0000   0.0000  -0.7066
  -9.570  -0.2450   0.02055   0.01588  -0.2026  0.3538  0.0142  -7.0554   0.0000   0.0000   0.0000  -0.7029
  -9.560  -0.2458   0.02045   0.01578  -0.2025  0.3538  0.0142  -7.0552   0.0000   0.0000   0.0000  -0.6995
  -9.550  -0.2465   0.02036   0.01568  -0.2025  0.3537  0.0142  -7.0548   0.0000   0.0000   0.0000  -0.6962
  -9.540  -0.2472   0.02026   0.01558  -0.2024  0.3537  0.0142  -7.0542   0.0000   0.0000   0.0000  -0.6933
  -9.530  -0.2478   0.02016   0.01548  -0.2024  0.3537  0.0142  -7.0534   0.0000   0.0000   0.0000  -0.6905
  -9.520  -0.2484   0.02006   0.01538  -0.2023  0.3537  0.0142  -7.0522   0.0000   0.0000   0.0000  -0.6881
  -9.510  -0.2488   0.01997   0.01528  -0.2023  0.3536  0.0142  -7.0506   0.0000   0.0000   0.0000  -0.6860
  -9.500  -0.2492   0.01988   0.01519  -0.2023  0.3536  0.0142  -7.0486   0.0000   0.0000   0.0000  -0.6842
  -9.490  -0.2496   0.01978   0.01509  -0.2022  0.3536  0.0142  -7.0466   0.0000   0.0000   0.0000  -0.6826
  -9.480  -0.2499   0.01969   0.01499  -0.2022  0.3536  0.0142  -7.0445   0.0000   0.0000   0.0000  -0.6811
  -9.470  -0.2503   0.01959   0.01489  -0.2022  0.3535  0.0142  -7.0423   0.0000   0.0000   0.0000  -0.6797
  -9.460  -0.2505   0.01949   0.01479  -0.2023  0.3535  0.0142  -7.0398   0.0000   0.0000   0.0000  -0.6786
  -9.450  -0.2507   0.01939   0.01469  -0.2023  0.3535  0.0142  -7.0372   0.0000   0.0000   0.0000  -0.6778
  -9.440  -0.2509   0.01929   0.01459  -0.2023  0.3535  0.0142  -7.0342   0.0000   0.0000   0.0000  -0.6771
  -9.430  -0.2510   0.01920   0.01449  -0.2023  0.3534  0.0142  -7.0309   0.0000   0.0000   0.0000  -0.6767
  -9.420  -0.2510   0.01910   0.01439  -0.2023  0.3534  0.0142  -7.0276   0.0000   0.0000   0.0000  -0.6763
  -9.410  -0.2511   0.01901   0.01429  -0.2024  0.3534  0.0142  -7.0243   0.0000   0.0000   0.0000  -0.6760
  -9.400  -0.2512   0.01891   0.01419  -0.2024  0.3534  0.0142  -7.0209   0.0000   0.0000   0.0000  -0.6758
  -9.390  -0.2512   0.01881   0.01409  -0.2024  0.3533  0.0142  -7.0175   0.0000   0.0000   0.0000  -0.6756
  -9.380  -0.2512   0.01871   0.01399  -0.2025  0.3533  0.0142  -7.0138   0.0000   0.0000   0.0000  -0.6757
  -9.370  -0.2511   0.01862   0.01389  -0.2025  0.3533  0.0142  -7.0099   0.0000   0.0000   0.0000  -0.6759
  -9.360  -0.2510   0.01852   0.01379  -0.2026  0.3532  0.0142  -7.0058   0.0000   0.0000   0.0000  -0.6763
  -9.350  -0.2509   0.01843   0.01369  -0.2026  0.3532  0.0142  -7.0016   0.0000   0.0000   0.0000  -0.6769
  -9.340  -0.2507   0.01833   0.01359  -0.2027  0.3532  0.0142  -6.9971   0.0000   0.0000   0.0000  -0.6778
  -9.330  -0.2504   0.01824   0.01350  -0.2028  0.3531  0.0142  -6.9924   0.0000   0.0000   0.0000  -0.6788
  -9.320  -0.2501   0.01814   0.01340  -0.2029  0.3531  0.0142  -6.9874   0.0000   0.0000   0.0000  -0.6801
  -9.310  -0.2498   0.01805   0.01330  -0.2030  0.3531  0.0142  -6.9822   0.0000   0.0000   0.0000  -0.6816
  -9.300  -0.2494   0.01795   0.01320  -0.2030  0.3530  0.0142  -6.9768   0.0000   0.0000   0.0000  -0.6833
  -9.290  -0.2489   0.01786   0.01311  -0.2031  0.3530  0.0142  -6.9711   0.0000   0.0000   0.0000  -0.6852
  -9.280  -0.2484   0.01777   0.01301  -0.2032  0.3530  0.0142  -6.9652   0.0000   0.0000   0.0000  -0.6874
  -9.270  -0.2478   0.01768   0.01292  -0.2034  0.3529  0.0142  -6.9590   0.0000   0.0000   0.0000  -0.6897
  -9.260  -0.2472   0.01760   0.01283  -0.2035  0.3529  0.0142  -6.9526   0.0000   0.0000   0.0000  -0.6922
  -9.250  -0.2466   0.01751   0.01274  -0.2036  0.3529  0.0142  -6.9461   0.0000   0.0000   0.0000  -0.6948
  -9.240  -0.2459   0.01743   0.01266  -0.2036  0.3528  0.0142  -6.9393   0.0000   0.0000   0.0000  -0.6976
  -9.230  -0.2453   0.01736   0.01258  -0.2037  0.3528  0.0142  -6.9324   0.0000   0.0000   0.0000  -0.7003
  -9.220  -0.2446   0.01729   0.01250  -0.2038  0.3528  0.0142  -6.9254   0.0000   0.0000   0.0000  -0.7030
  -9.210  -0.2439   0.01723   0.01244  -0.2038  0.3527  0.0142  -6.9183   0.0000   0.0000   0.0000  -0.7056
  -9.200  -0.2433   0.01717   0.01237  -0.2038  0.3527  0.0142  -6.9111   0.0000   0.0000   0.0000  -0.7081
  -9.190  -0.2426   0.01712   0.01232  -0.2038  0.3526  0.0142  -6.9038   0.0000   0.0000   0.0000  -0.7106
  -9.180  -0.2419   0.01707   0.01227  -0.2038  0.3526  0.0142  -6.8964   0.0000   0.0000   0.0000  -0.7129
  -9.170  -0.2413   0.01702   0.01222  -0.2038  0.3526  0.0142  -6.8891   0.0000   0.0000   0.0000  -0.7152
  -9.160  -0.2406   0.01698   0.01217  -0.2038  0.3525  0.0142  -6.8817   0.0000   0.0000   0.0000  -0.7175
  -9.150  -0.2400   0.01694   0.01213  -0.2037  0.3525  0.0142  -6.8742   0.0000   0.0000   0.0000  -0.7198
  -9.140  -0.2393   0.01690   0.01209  -0.2037  0.3524  0.0142  -6.8667   0.0000   0.0000   0.0000  -0.7221
  -9.130  -0.2387   0.01686   0.01205  -0.2037  0.3524  0.0142  -6.8592   0.0000   0.0000   0.0000  -0.7244
  -9.120  -0.2380   0.01683   0.01201  -0.2036  0.3524  0.0142  -6.8516   0.0000   0.0000   0.0000  -0.7268
  -9.110  -0.2373   0.01679   0.01197  -0.2036  0.3523  0.0142  -6.8439   0.0000   0.0000   0.0000  -0.7292
  -9.100  -0.2366   0.01676   0.01193  -0.2035  0.3523  0.0142  -6.8362   0.0000   0.0000   0.0000  -0.7317
  -9.090  -0.2359   0.01672   0.01189  -0.2035  0.3522  0.0142  -6.8284   0.0000   0.0000   0.0000  -0.7343
  -9.080  -0.2352   0.01669   0.01185  -0.2034  0.3522  0.0142  -6.8206   0.0000   0.0000   0.0000  -0.7369
  -9.070  -0.2345   0.01665   0.01182  -0.2034  0.3522  0.0142  -6.8127   0.0000   0.0000   0.0000  -0.7396
  -9.060  -0.2337   0.01662   0.01178  -0.2033  0.3521  0.0142  -6.8048   0.0000   0.0000   0.0000  -0.7423
  -9.050  -0.2330   0.01659   0.01174  -0.2033  0.3521  0.0142  -6.7968   0.0000   0.0000   0.0000  -0.7452
  -9.040  -0.2322   0.01655   0.01171  -0.2032  0.3520  0.0142  -6.7888   0.0000   0.0000   0.0000  -0.7480
  -9.030  -0.2315   0.01652   0.01167  -0.2032  0.3520  0.0142  -6.7807   0.0000   0.0000   0.0000  -0.7509
  -9.020  -0.2307   0.01649   0.01164  -0.2031  0.3519  0.0142  -6.7726   0.0000   0.0000   0.0000  -0.7539
  -9.010  -0.2299   0.01646   0.01161  -0.2031  0.3519  0.0143  -6.7645   0.0000   0.0000   0.0000  -0.7570
  -9.000  -0.2291   0.01643   0.01157  -0.2030  0.3519  0.0143  -6.7563   0.0000   0.0000   0.0000  -0.7601
  -8.990  -0.2283   0.01640   0.01154  -0.2030  0.3518  0.0143  -6.7481   0.0000   0.0000   0.0000  -0.7632
  -8.980  -0.2275   0.01637   0.01151  -0.2029  0.3518  0.0143  -6.7398   0.0000   0.0000   0.0000  -0.7664
  -8.970  -0.2267   0.01634   0.01147  -0.2029  0.3517  0.0143  -6.7315   0.0000   0.0000   0.0000  -0.7697
  -8.960  -0.2258   0.01631   0.01144  -0.2028  0.3517  0.0143  -6.7232   0.0000   0.0000   0.0000  -0.7730
  -8.950  -0.2250   0.01628   0.01141  -0.2028  0.3516  0.0143  -6.7148   0.0000   0.0000   0.0000  -0.7764
  -8.940  -0.2242   0.01625   0.01138  -0.2027  0.3516  0.0143  -6.7065   0.0000   0.0000   0.0000  -0.7798
  -8.930  -0.2233   0.01622   0.01135  -0.2027  0.3515  0.0143  -6.6981   0.0000   0.0000   0.0000  -0.7833
  -8.920  -0.2225   0.01620   0.01132  -0.2026  0.3515  0.0143  -6.6897   0.0000   0.0000   0.0000  -0.7868
  -8.910  -0.2216   0.01617   0.01129  -0.2026  0.3515  0.0143  -6.6813   0.0000   0.0000   0.0000  -0.7903
  -8.900  -0.2208   0.01614   0.01126  -0.2025  0.3514  0.0143  -6.6729   0.0000   0.0000   0.0000  -0.7938
  -8.890  -0.2200   0.01612   0.01123  -0.2025  0.3514  0.0143  -6.6645   0.0000   0.0000   0.0000  -0.7973
  -8.880  -0.2191   0.01609   0.01120  -0.2024  0.3513  0.0143  -6.6561   0.0000   0.0000   0.0000  -0.8009
  -8.870  -0.2183   0.01606   0.01117  -0.2024  0.3513  0.0143  -6.6478   0.0000   0.0000   0.0000  -0.8045
  -8.860  -0.2175   0.01604   0.01115  -0.2023  0.3513  0.0143  -6.6394   0.0000   0.0000   0.0000  -0.8081
  -8.850  -0.2166   0.01601   0.01112  -0.2022  0.3512  0.0143  -6.6310   0.0000   0.0000   0.0000  -0.8117
  -8.840  -0.2158   0.01599   0.01109  -0.2022  0.3512  0.0143  -6.6225   0.0000   0.0000   0.0000  -0.8154
  -8.830  -0.2149   0.01597   0.01106  -0.2021  0.3512  0.0143  -6.6141   0.0000   0.0000   0.0000  -0.8192
  -8.820  -0.2141   0.01594   0.01104  -0.2021  0.3511  0.0143  -6.6057   0.0000   0.0000   0.0000  -0.8230
  -8.810  -0.2132   0.01592   0.01101  -0.2020  0.3511  0.0143  -6.5972   0.0000   0.0000   0.0000  -0.8268
  -8.800  -0.2123   0.01589   0.01098  -0.2020  0.3511  0.0143  -6.5888   0.0000   0.0000   0.0000  -0.8307
  -8.790  -0.2115   0.01587   0.01096  -0.2019  0.3511  0.0143  -6.5803   0.0000   0.0000   0.0000  -0.8346
  -8.780  -0.2106   0.01585   0.01093  -0.2018  0.3510  0.0143  -6.5718   0.0000   0.0000   0.0000  -0.8386
  -8.770  -0.2097   0.01582   0.01091  -0.2018  0.3510  0.0143  -6.5633   0.0000   0.0000   0.0000  -0.8427
  -8.760  -0.2089   0.01580   0.01088  -0.2017  0.3510  0.0143  -6.5547   0.0000   0.0000   0.0000  -0.8468
  -8.750  -0.2080   0.01578   0.01086  -0.2017  0.3509  0.0143  -6.5462   0.0000   0.0000   0.0000  -0.8510
  -8.740  -0.2071   0.01576   0.01083  -0.2016  0.3509  0.0143  -6.5376   0.0000   0.0000   0.0000  -0.8552
  -8.730  -0.2062   0.01574   0.01081  -0.2015  0.3509  0.0143  -6.5290   0.0000   0.0000   0.0000  -0.8595
  -8.720  -0.2053   0.01571   0.01079  -0.2015  0.3509  0.0143  -6.5204   0.0000   0.0000   0.0000  -0.8638
  -8.710  -0.2044   0.01569   0.01076  -0.2014  0.3508  0.0143  -6.5118   0.0000   0.0000   0.0000  -0.8683
  -8.700  -0.2035   0.01567   0.01074  -0.2014  0.3508  0.0143  -6.5031   0.0000   0.0000   0.0000  -0.8728
  -8.690  -0.2026   0.01565   0.01071  -0.2013  0.3508  0.0143  -6.4944   0.0000   0.0000   0.0000  -0.8774
  -8.680  -0.2016   0.01563   0.01069  -0.2012  0.3508  0.0143  -6.4858   0.0000   0.0000   0.0000  -0.8820
  -8.670  -0.2007   0.01561   0.01067  -0.2012  0.3507  0.0143  -6.4770   0.0000   0.0000   0.0000  -0.8868
  -8.660  -0.1998   0.01559   0.01065  -0.2011  0.3507  0.0143  -6.4683   0.0000   0.0000   0.0000  -0.8916
  -8.650  -0.1988   0.01557   0.01062  -0.2011  0.3507  0.0143  -6.4595   0.0000   0.0000   0.0000  -0.8965
  -8.640  -0.1979   0.01555   0.01060  -0.2010  0.3506  0.0143  -6.4508   0.0000   0.0000   0.0000  -0.9015
  -8.630  -0.1969   0.01553   0.01058  -0.2009  0.3506  0.0143  -6.4420   0.0000   0.0000   0.0000  -0.9065
  -8.620  -0.1960   0.01551   0.01056  -0.2009  0.3506  0.0143  -6.4332   0.0000   0.0000   0.0000  -0.9117
  -8.610  -0.1950   0.01549   0.01053  -0.2008  0.3506  0.0143  -6.4244   0.0000   0.0000   0.0000  -0.9169
  -8.600  -0.1941   0.01547   0.01051  -0.2008  0.3505  0.0143  -6.4155   0.0000   0.0000   0.0000  -0.9222
  -8.590  -0.1931   0.01545   0.01049  -0.2007  0.3505  0.0143  -6.4067   0.0000   0.0000   0.0000  -0.9276
  -8.580  -0.1921   0.01543   0.01047  -0.2007  0.3504  0.0143  -6.3978   0.0000   0.0000   0.0000  -0.9331
  -8.570  -0.1911   0.01541   0.01045  -0.2006  0.3504  0.0143  -6.3889   0.0000   0.0000   0.0000  -0.9386
  -8.560  -0.1902   0.01539   0.01043  -0.2006  0.3504  0.0143  -6.3800   0.0000   0.0000   0.0000  -0.9443
  -8.550  -0.1892   0.01538   0.01041  -0.2005  0.3503  0.0143  -6.3711   0.0000   0.0000   0.0000  -0.9500
  -8.540  -0.1882   0.01536   0.01038  -0.2004  0.3503  0.0143  -6.3622   0.0000   0.0000   0.0000  -0.9558
  -8.530  -0.1872   0.01534   0.01036  -0.2004  0.3503  0.0143  -6.3533   0.0000   0.0000   0.0000  -0.9617
  -8.520  -0.1862   0.01532   0.01034  -0.2003  0.3502  0.0143  -6.3443   0.0000   0.0000   0.0000  -0.9677
  -8.510  -0.1852   0.01530   0.01032  -0.2003  0.3502  0.0143  -6.3354   0.0000   0.0000   0.0000  -0.9739
  -8.500  -0.1842   0.01528   0.01030  -0.2002  0.3501  0.0143  -6.3264   0.0000   0.0000   0.0000  -0.9801
  -8.490  -0.1831   0.01527   0.01028  -0.2002  0.3501  0.0143  -6.3174   0.0000   0.0000   0.0000  -0.9864
  -8.480  -0.1821   0.01525   0.01026  -0.2001  0.3501  0.0143  -6.3084   0.0000   0.0000   0.0000  -0.9928
  -8.470  -0.1811   0.01523   0.01024  -0.2001  0.3500  0.0143  -6.2994   0.0000   0.0000   0.0000  -0.9993
  -8.460  -0.1801   0.01521   0.01022  -0.2000  0.3500  0.0143  -6.2904   0.0000   0.0000   0.0000  -1.0059
  -8.450  -0.1790   0.01520   0.01020  -0.2000  0.3500  0.0143  -6.2813   0.0000   0.0000   0.0000  -1.0127
  -8.440  -0.1780   0.01518   0.01018  -0.1999  0.3499  0.0143  -6.2723   0.0000   0.0000   0.0000  -1.0195
  -8.430  -0.1770   0.01516   0.01017  -0.1999  0.3499  0.0144  -6.2632   0.0000   0.0000   0.0000  -1.0265
  -8.420  -0.1759   0.01515   0.01015  -0.1998  0.3499  0.0144  -6.2542   0.0000   0.0000   0.0000  -1.0335
  -8.410  -0.1749   0.01513   0.01013  -0.1998  0.3499  0.0144  -6.2451   0.0000   0.0000   0.0000  -1.0407
  -8.400  -0.1738   0.01511   0.01011  -0.1997  0.3498  0.0144  -6.2360   0.0000   0.0000   0.0000  -1.0480
  -8.390  -0.1727   0.01510   0.01009  -0.1997  0.3498  0.0144  -6.2269   0.0000   0.0000   0.0000  -1.0555
  -8.380  -0.1717   0.01508   0.01007  -0.1996  0.3498  0.0144  -6.2178   0.0000   0.0000   0.0000  -1.0630
  -8.370  -0.1706   0.01506   0.01005  -0.1996  0.3498  0.0144  -6.2087   0.0000   0.0000   0.0000  -1.0707
  -8.360  -0.1695   0.01505   0.01003  -0.1995  0.3497  0.0144  -6.1995   0.0000   0.0000   0.0000  -1.0785
  -8.350  -0.1685   0.01503   0.01002  -0.1995  0.3497  0.0144  -6.1904   0.0000   0.0000   0.0000  -1.0865
  -8.340  -0.1674   0.01502   0.01000  -0.1994  0.3497  0.0144  -6.1812   0.0000   0.0000   0.0000  -1.0945
  -8.330  -0.1663   0.01500   0.00998  -0.1994  0.3497  0.0144  -6.1721   0.0000   0.0000   0.0000  -1.1028
  -8.320  -0.1652   0.01498   0.00996  -0.1993  0.3497  0.0144  -6.1629   0.0000   0.0000   0.0000  -1.1111
  -8.310  -0.1641   0.01497   0.00994  -0.1993  0.3497  0.0144  -6.1538   0.0000   0.0000   0.0000  -1.1196
  -8.300  -0.1630   0.01495   0.00993  -0.1992  0.3496  0.0144  -6.1446   0.0000   0.0000   0.0000  -1.1282
  -8.290  -0.1619   0.01494   0.00991  -0.1992  0.3496  0.0144  -6.1354   0.0000   0.0000   0.0000  -1.1369
  -8.280  -0.1609   0.01492   0.00989  -0.1991  0.3496  0.0144  -6.1263   0.0000   0.0000   0.0000  -1.1458
  -8.270  -0.1598   0.01491   0.00987  -0.1991  0.3496  0.0144  -6.1172   0.0000   0.0000   0.0000  -1.1547
  -8.260  -0.1587   0.01489   0.00986  -0.1990  0.3496  0.0144  -6.1081   0.0000   0.0000   0.0000  -1.1637
  -8.250  -0.1576   0.01488   0.00984  -0.1990  0.3496  0.0144  -6.0990   0.0000   0.0000   0.0000  -1.1728
  -8.240  -0.1565   0.01486   0.00982  -0.1989  0.3495  0.0144  -6.0899   0.0000   0.0000   0.0000  -1.1820
  -8.230  -0.1555   0.01485   0.00981  -0.1989  0.3495  0.0144  -6.0809   0.0000   0.0000   0.0000  -1.1913
  -8.220  -0.1544   0.01483   0.00979  -0.1988  0.3495  0.0144  -6.0718   0.0000   0.0000   0.0000  -1.2007
  -8.210  -0.1533   0.01482   0.00977  -0.1987  0.3495  0.0144  -6.0628   0.0000   0.0000   0.0000  -1.2102
  -8.200  -0.1522   0.01481   0.00976  -0.1987  0.3495  0.0144  -6.0538   0.0000   0.0000   0.0000  -1.2198
  -8.190  -0.1512   0.01479   0.00974  -0.1986  0.3495  0.0144  -6.0448   0.0000   0.0000   0.0000  -1.2296
  -8.180  -0.1501   0.01478   0.00973  -0.1986  0.3494  0.0144  -6.0358   0.0000   0.0000   0.0000  -1.2395
  -8.170  -0.1490   0.01476   0.00971  -0.1985  0.3494  0.0144  -6.0268   0.0000   0.0000   0.0000  -1.2495
  -8.160  -0.1480   0.01475   0.00969  -0.1985  0.3494  0.0144  -6.0178   0.0000   0.0000   0.0000  -1.2596
  -8.150  -0.1469   0.01474   0.00968  -0.1984  0.3494  0.0144  -6.0089   0.0000   0.0000   0.0000  -1.2699
  -8.140  -0.1458   0.01472   0.00966  -0.1984  0.3494  0.0144  -5.9999   0.0000   0.0000   0.0000  -1.2804
  -8.130  -0.1448   0.01471   0.00965  -0.1983  0.3494  0.0144  -5.9910   0.0000   0.0000   0.0000  -1.2910
  -8.120  -0.1437   0.01470   0.00963  -0.1982  0.3494  0.0144  -5.9820   0.0000   0.0000   0.0000  -1.3017
  -8.110  -0.1426   0.01468   0.00962  -0.1982  0.3493  0.0144  -5.9731   0.0000   0.0000   0.0000  -1.3127
  -8.100  -0.1416   0.01467   0.00960  -0.1981  0.3493  0.0144  -5.9641   0.0000   0.0000   0.0000  -1.3238
  -8.090  -0.1405   0.01466   0.00959  -0.1981  0.3493  0.0144  -5.9552   0.0000   0.0000   0.0000  -1.3352
  -8.080  -0.1394   0.01465   0.00957  -0.1980  0.3493  0.0144  -5.9462   0.0000   0.0000   0.0000  -1.3467
  -8.070  -0.1384   0.01463   0.00956  -0.1980  0.3493  0.0144  -5.9373   0.0000   0.0000   0.0000  -1.3584
  -8.060  -0.1373   0.01462   0.00955  -0.1979  0.3493  0.0144  -5.9283   0.0000   0.0000   0.0000  -1.3703
  -8.050  -0.1362   0.01461   0.00953  -0.1979  0.3492  0.0144  -5.9194   0.0000   0.0000   0.0000  -1.3824
  -8.040  -0.1351   0.01460   0.00952  -0.1978  0.3492  0.0144  -5.9104   0.0000   0.0000   0.0000  -1.3947
  -8.030  -0.1340   0.01458   0.00950  -0.1977  0.3492  0.0144  -5.9015   0.0000   0.0000   0.0000  -1.4073
  -8.020  -0.1330   0.01457   0.00949  -0.1977  0.3492  0.0144  -5.8926   0.0000   0.0000   0.0000  -1.4201
  -8.010  -0.1319   0.01456   0.00947  -0.1976  0.3492  0.0144  -5.8836   0.0000   0.0000   0.0000  -1.4332
  -8.000  -0.1308   0.01455   0.00946  -0.1976  0.3492  0.0144  -5.8746   0.0000   0.0000   0.0000  -1.4465
  -7.990  -0.1297   0.01454   0.00945  -0.1975  0.3491  0.0144  -5.8657   0.0000   0.0000   0.0000  -1.4601
  -7.980  -0.1286   0.01452   0.00943  -0.1975  0.3491  0.0144  -5.8567   0.0000   0.0000   0.0000  -1.4740
  -7.970  -0.1275   0.01451   0.00942  -0.1974  0.3491  0.0144  -5.8478   0.0000   0.0000   0.0000  -1.4881
  -7.960  -0.1264   0.01450   0.00940  -0.1974  0.3491  0.0144  -5.8388   0.0000   0.0000   0.0000  -1.5025
  -7.950  -0.1253   0.01449   0.00939  -0.1973  0.3491  0.0144  -5.8298   0.0000   0.0000   0.0000  -1.5172
  -7.940  -0.1242   0.01448   0.00938  -0.1973  0.3491  0.0144  -5.8209   0.0000   0.0000   0.0000  -1.5323
  -7.930  -0.1231   0.01446   0.00936  -0.1972  0.3490  0.0144  -5.8119   0.0000   0.0000   0.0000  -1.5476
  -7.920  -0.1219   0.01445   0.00935  -0.1972  0.3490  0.0144  -5.8029   0.0000   0.0000   0.0000  -1.5633
  -7.910  -0.1208   0.01444   0.00934  -0.1971  0.3490  0.0144  -5.7939   0.0000   0.0000   0.0000  -1.5793
  -7.900  -0.1197   0.01443   0.00932  -0.1971  0.3490  0.0145  -5.7849   0.0000   0.0000   0.0000  -1.5956
  -7.890  -0.1186   0.01442   0.00931  -0.1970  0.3490  0.0145  -5.7760   0.0000   0.0000   0.0000  -1.6123
  -7.880  -0.1175   0.01441   0.00930  -0.1970  0.3490  0.0145  -5.7670   0.0000   0.0000   0.0000  -1.6293
  -7.870  -0.1163   0.01440   0.00928  -0.1969  0.3490  0.0145  -5.7580   0.0000   0.0000   0.0000  -1.6467
  -7.860  -0.1152   0.01438   0.00927  -0.1968  0.3489  0.0145  -5.7490   0.0000   0.0000   0.0000  -1.6645
  -7.850  -0.1141   0.01437   0.00926  -0.1968  0.3489  0.0145  -5.7400   0.0000   0.0000   0.0000  -1.6827
  -7.840  -0.1129   0.01436   0.00925  -0.1967  0.3489  0.0145  -5.7311   0.0000   0.0000   0.0000  -1.7012
  -7.830  -0.1118   0.01435   0.00923  -0.1967  0.3489  0.0145  -5.7221   0.0000   0.0000   0.0000  -1.7202
  -7.820  -0.1107   0.01434   0.00922  -0.1966  0.3489  0.0145  -5.7131   0.0000   0.0000   0.0000  -1.7396
  -7.810  -0.1095   0.01433   0.00921  -0.1966  0.3489  0.0145  -5.7041   0.0000   0.0000   0.0000  -1.7595
  -7.800  -0.1084   0.01432   0.00919  -0.1965  0.3488  0.0145  -5.6951   0.0000   0.0000   0.0000  -1.7798
  -7.790  -0.1073   0.01431   0.00918  -0.1965  0.3488  0.0145  -5.6861   0.0000   0.0000   0.0000  -1.8006
  -7.780  -0.1061   0.01430   0.00917  -0.1964  0.3488  0.0145  -5.6772   0.0000   0.0000   0.0000  -1.8219
  -7.770  -0.1050   0.01429   0.00916  -0.1964  0.3488  0.0145  -5.6682   0.0000   0.0000   0.0000  -1.8437
  -7.760  -0.1038   0.01428   0.00914  -0.1964  0.3488  0.0145  -5.6592   0.0000   0.0000   0.0000  -1.8660
  -7.750  -0.1027   0.01427   0.00913  -0.1963  0.3488  0.0145  -5.6502   0.0000   0.0000   0.0000  -1.8888
  -7.740  -0.1015   0.01425   0.00912  -0.1963  0.3487  0.0145  -5.6413   0.0000   0.0000   0.0000  -1.9122
  -7.730  -0.1004   0.01424   0.00911  -0.1962  0.3487  0.0145  -5.6323   0.0000   0.0000   0.0000  -1.9361
  -7.720  -0.0992   0.01423   0.00909  -0.1962  0.3487  0.0145  -5.6233   0.0000   0.0000   0.0000  -1.9607
  -7.710  -0.0981   0.01422   0.00908  -0.1961  0.3487  0.0145  -5.6144   0.0000   0.0000   0.0000  -1.9858
  -7.700  -0.0969   0.01421   0.00907  -0.1961  0.3487  0.0145  -5.6054   0.0000   0.0000   0.0000  -2.0116
  -7.690  -0.0957   0.01420   0.00906  -0.1960  0.3487  0.0145  -5.5965   0.0000   0.0000   0.0000  -2.0381
  -7.680  -0.0946   0.01419   0.00905  -0.1960  0.3486  0.0145  -5.5875   0.0000   0.0000   0.0000  -2.0652
  -7.670  -0.0934   0.01418   0.00904  -0.1959  0.3486  0.0145  -5.5786   0.0000   0.0000   0.0000  -2.0931
  -7.660  -0.0923   0.01417   0.00902  -0.1959  0.3486  0.0145  -5.5696   0.0000   0.0000   0.0000  -2.1216
  -7.650  -0.0911   0.01416   0.00901  -0.1958  0.3486  0.0145  -5.5607   0.0000   0.0000   0.0000  -2.1510
  -7.640  -0.0899   0.01415   0.00900  -0.1958  0.3486  0.0145  -5.5517   0.0000   0.0000   0.0000  -2.1811
  -7.630  -0.0888   0.01414   0.00899  -0.1957  0.3486  0.0145  -5.5428   0.0000   0.0000   0.0000  -2.2121
  -7.620  -0.0876   0.01413   0.00898  -0.1957  0.3486  0.0145  -5.5339   0.0000   0.0000   0.0000  -2.2439
  -7.610  -0.0864   0.01412   0.00897  -0.1956  0.3485  0.0145  -5.5250   0.0000   0.0000   0.0000  -2.2766
  -7.600  -0.0853   0.01411   0.00895  -0.1956  0.3485  0.0145  -5.5160   0.0000   0.0000   0.0000  -2.3102
  -7.590  -0.0841   0.01410   0.00894  -0.1955  0.3485  0.0145  -5.5071   0.0000   0.0000   0.0000  -2.3448
  -7.580  -0.0829   0.01409   0.00893  -0.1955  0.3485  0.0145  -5.4982   0.0000   0.0000   0.0000  -2.3804
  -7.570  -0.0817   0.01409   0.00892  -0.1954  0.3485  0.0145  -5.4893   0.0000   0.0000   0.0000  -2.4171
  -7.560  -0.0806   0.01408   0.00891  -0.1954  0.3485  0.0145  -5.4804   0.0000   0.0000   0.0000  -2.4549
  -7.550  -0.0794   0.01407   0.00890  -0.1954  0.3484  0.0145  -5.4715   0.0000   0.0000   0.0000  -2.4938
  -7.540  -0.0782   0.01406   0.00889  -0.1953  0.3484  0.0145  -5.4626   0.0000   0.0000   0.0000  -2.5339
  -7.530  -0.0770   0.01405   0.00888  -0.1953  0.3484  0.0145  -5.4538   0.0000   0.0000   0.0000  -2.5753
  -7.520  -0.0759   0.01404   0.00886  -0.1952  0.3484  0.0145  -5.4449   0.0000   0.0000   0.0000  -2.6179
  -7.510  -0.0747   0.01403   0.00885  -0.1952  0.3484  0.0145  -5.4360   0.0000   0.0000   0.0000  -2.6620
  -7.500  -0.0735   0.01402   0.00884  -0.1951  0.3484  0.0145  -5.4271   0.0000   0.0000   0.0000  -2.7075
  -7.490  -0.0723   0.01401   0.00883  -0.1951  0.3483  0.0145  -5.4183   0.0000   0.0000   0.0000  -2.7545
  -7.480  -0.0712   0.01400   0.00882  -0.1950  0.3483  0.0145  -5.4094   0.0000   0.0000   0.0000  -2.8029
  -7.470  -0.0700   0.01399   0.00881  -0.1950  0.3483  0.0145  -5.4006   0.0000   0.0000   0.0000  -2.8528
  -7.460  -0.0688   0.01398   0.00880  -0.1949  0.3483  0.0145  -5.3918   0.0000   0.0000   0.0000  -2.9042
  -7.450  -0.0677   0.01398   0.00879  -0.1949  0.3483  0.0145  -5.3831   0.0000   0.0000   0.0000  -2.9571
  -7.440  -0.0665   0.01397   0.00878  -0.1948  0.3483  0.0145  -5.3743   0.0000   0.0000   0.0000  -3.0117
  -7.430  -0.0653   0.01396   0.00877  -0.1948  0.3483  0.0145  -5.3656   0.0000   0.0000   0.0000  -3.0680
  -7.420  -0.0642   0.01395   0.00876  -0.1947  0.3482  0.0145  -5.3569   0.0000   0.0000   0.0000  -3.1262
  -7.410  -0.0630   0.01394   0.00875  -0.1947  0.3482  0.0146  -5.3482   0.0000   0.0000   0.0000  -3.1863
  -7.400  -0.0619   0.01393   0.00874  -0.1946  0.3482  0.0146  -5.3395   0.0000   0.0000   0.0000  -3.2484
  -7.390  -0.0608   0.01393   0.00873  -0.1946  0.3482  0.0146  -5.3309   0.0000   0.0000   0.0000  -3.3126
  -7.380  -0.0596   0.01392   0.00872  -0.1945  0.3482  0.0146  -5.3223   0.0000   0.0000   0.0000  -3.3792
  -7.370  -0.0585   0.01391   0.00871  -0.1945  0.3482  0.0146  -5.3137   0.0000   0.0000   0.0000  -3.4481
  -7.360  -0.0573   0.01390   0.00870  -0.1944  0.3481  0.0146  -5.3051   0.0000   0.0000   0.0000  -3.5197
  -7.350  -0.0562   0.01389   0.00869  -0.1944  0.3481  0.0146  -5.2965   0.0000   0.0000   0.0000  -3.5939
  -7.340  -0.0551   0.01389   0.00868  -0.1943  0.3481  0.0146  -5.2879   0.0000   0.0000   0.0000  -3.6711
  -7.330  -0.0540   0.01388   0.00867  -0.1943  0.3481  0.0146  -5.2794   0.0000   0.0000   0.0000  -3.7515
  -7.320  -0.0528   0.01387   0.00867  -0.1942  0.3481  0.0146  -5.2708   0.0000   0.0000   0.0000  -3.8352
  -7.310  -0.0517   0.01386   0.00866  -0.1942  0.3481  0.0146  -5.2623   0.0000   0.0000   0.0000  -3.9225
  -7.300  -0.0506   0.01386   0.00865  -0.1941  0.3481  0.0146  -5.2538   0.0000   0.0000   0.0000  -4.0137
  -7.290  -0.0494   0.01385   0.00864  -0.1940  0.3480  0.0146  -5.2453   0.0000   0.0000   0.0000  -4.1091
  -7.280  -0.0483   0.01384   0.00863  -0.1940  0.3480  0.0146  -5.2368   0.0000   0.0000   0.0000  -4.2089
  -7.270  -0.0472   0.01383   0.00862  -0.1939  0.3480  0.0146  -5.2283   0.0000   0.0000   0.0000  -4.3136
  -7.260  -0.0461   0.01383   0.00861  -0.1939  0.3480  0.0146  -5.2198   0.0000   0.0000   0.0000  -4.4235
  -7.250  -0.0449   0.01382   0.00860  -0.1938  0.3480  0.0146  -5.2113   0.0000   0.0000   0.0000  -4.5388
  -7.240  -0.0438   0.01381   0.00859  -0.1938  0.3480  0.0146  -5.2029   0.0000   0.0000   0.0000  -4.6599
  -7.230  -0.0427   0.01380   0.00859  -0.1937  0.3479  0.0146  -5.1944   0.0000   0.0000   0.0000  -4.7876
  -7.220  -0.0415   0.01380   0.00858  -0.1937  0.3479  0.0146  -5.1859   0.0000   0.0000   0.0000  -4.9225
  -7.210  -0.0404   0.01379   0.00857  -0.1936  0.3479  0.0146  -5.1775   0.0000   0.0000   0.0000  -5.0651
  -7.200  -0.0393   0.01378   0.00856  -0.1936  0.3479  0.0146  -5.1690   0.0000   0.0000   0.0000  -5.2161
  -7.190  -0.0381   0.01378   0.00855  -0.1935  0.3479  0.0146  -5.1606   0.0000   0.0000   0.0000  -5.3764
  -7.180  -0.0370   0.01377   0.00854  -0.1934  0.3479  0.0146  -5.1521   0.0000   0.0000   0.0000  -5.5468
  -7.170  -0.0359   0.01376   0.00853  -0.1934  0.3478  0.0146  -5.1437   0.0000   0.0000   0.0000  -5.7284
  -7.160  -0.0347   0.01376   0.00853  -0.1933  0.3478  0.0146  -5.1352   0.0000   0.0000   0.0000  -5.9222
  -7.150  -0.0336   0.01375   0.00852  -0.1933  0.3478  0.0146  -5.1268   0.0000   0.0000   0.0000  -6.1296
  -7.140  -0.0324   0.01374   0.00851  -0.1932  0.3478  0.0146  -5.1183   0.0000   0.0000   0.0000  -6.3519
  -7.130  -0.0313   0.01373   0.00850  -0.1932  0.3478  0.0146  -5.1099   0.0000   0.0000   0.0000  -6.5909
  -7.120  -0.0301   0.01373   0.00849  -0.1931  0.3478  0.0146  -5.1014   0.0000   0.0000   0.0000  -6.8485
  -7.110  -0.0290   0.01372   0.00848  -0.1931  0.3478  0.0146  -5.0930   0.0000   0.0000   0.0000  -7.1270
  -7.100  -0.0278   0.01371   0.00848  -0.1930  0.3477  0.0146  -5.0846   0.0000   0.0000   0.0000  -7.4289
  -7.090  -0.0267   0.01371   0.00847  -0.1930  0.3477  0.0146  -5.0761   0.0000   0.0000   0.0000  -7.7574
  -7.080  -0.0255   0.01370   0.00846  -0.1929  0.3477  0.0146  -5.0677   0.0000   0.0000   0.0000  -8.1162
  -7.070  -0.0244   0.01369   0.00845  -0.1929  0.3477  0.0146  -5.0593   0.0000   0.0000   0.0000  -8.5095
  -7.060  -0.0232   0.01369   0.00844  -0.1928  0.3477  0.0146  -5.0508   0.0000   0.0000   0.0000  -8.9426
  -7.050  -0.0221   0.01368   0.00844  -0.1928  0.3477  0.0146  -5.0424   0.0000   0.0000   0.0000  -9.4218
  -7.040  -0.0209   0.01367   0.00843  -0.1927  0.3476  0.0146  -5.0340   0.0000   0.0000   0.0000  -9.9549
  -7.030  -0.0197   0.01367   0.00842  -0.1927  0.3476  0.0146  -5.0256   0.0000   0.0000   0.0000  -10.5515
  -7.020  -0.0186   0.01366   0.00841  -0.1926  0.3476  0.0146  -5.0172   0.0000   0.0000   0.0000  -11.2232
  -7.010  -0.0174   0.01365   0.00840  -0.1926  0.3476  0.0146  -5.0088   0.0000   0.0000   0.0000  -11.9858
  -7.000  -0.0162   0.01365   0.00840  -0.1925  0.3476  0.0146  -5.0004   0.0000   0.0000   0.0000  -12.8587
  -6.990  -0.0151   0.01364   0.00839  -0.1925  0.3475  0.0146  -4.9920   0.0000   0.0000   0.0000  -13.8676
  -6.980  -0.0139   0.01363   0.00838  -0.1924  0.3475  0.0146  -4.9836   0.0000   0.0000   0.0000  -15.0470
  -6.970  -0.0127   0.01363   0.00837  -0.1924  0.3475  0.0146  -4.9752   0.0000   0.0000   0.0000  -16.4438
  -6.960  -0.0116   0.01362   0.00836  -0.1923  0.3475  0.0146  -4.9668   0.0000   0.0000   0.0000  -18.1243
  -6.950  -0.0104   0.01362   0.00836  -0.1923  0.3475  0.0146  -4.9585   0.0000   0.0000   0.0000  -20.1846
  -6.940  -0.0092   0.01361   0.00835  -0.1922  0.3475  0.0146  -4.9501   0.0000   0.0000   0.0000  -22.7697
  -6.930  -0.0081   0.01360   0.00834  -0.1922  0.3474  0.0147  -4.9418   0.0000   0.0000   0.0000  -26.1090
  -6.920  -0.0069   0.01360   0.00833  -0.1921  0.3474  0.0147  -4.9334   0.0000   0.0000   0.0000  -30.5890
  -6.910  -0.0057   0.01359   0.00833  -0.1921  0.3474  0.0147  -4.9250   0.0000   0.0000   0.0000  -36.9128
  -6.900  -0.0045   0.01358   0.00832  -0.1920  0.3474  0.0147  -4.9167   0.0000   0.0000   0.0000  -46.5163
  -6.890  -0.0034   0.01358   0.00831  -0.1920  0.3474  0.0147  -4.9084   0.0000   0.0000   0.0000  -62.8409
  -6.880  -0.0022   0.01357   0.00830  -0.1920  0.3473  0.0147  -4.9000   0.0000   0.0000   0.0000  -96.7386
  -6.870  -0.0010   0.01357   0.00830  -0.1919  0.3473  0.0147  -4.8917   0.0000   0.0000   0.0000  -209.6544
  -6.860   0.0002   0.01356   0.00829  -0.1919  0.3473  0.0147  -4.8834   0.0000   0.0000   0.0000  1267.6392
  -6.850   0.0013   0.01355   0.00828  -0.1918  0.3473  0.0147  -4.8751   0.0000   0.0000   0.0000  157.7612
  -6.840   0.0025   0.01355   0.00827  -0.1918  0.3472  0.0147  -4.8668   0.0000   0.0000   0.0000  84.1769
  -6.830   0.0037   0.01354   0.00827  -0.1917  0.3472  0.0147  -4.8585   0.0000   0.0000   0.0000  57.4316
  -6.820   0.0049   0.01354   0.00826  -0.1917  0.3472  0.0147  -4.8502   0.0000   0.0000   0.0000  43.6001
  -6.810   0.0061   0.01353   0.00825  -0.1916  0.3472  0.0147  -4.8420   0.0000   0.0000   0.0000  35.1481
  -6.800   0.0072   0.01353   0.00824  -0.1916  0.3472  0.0147  -4.8337   0.0000   0.0000   0.0000  29.4479
  -6.790   0.0084   0.01352   0.00824  -0.1915  0.3471  0.0147  -4.8254   0.0000   0.0000   0.0000  25.3434
  -6.780   0.0096   0.01351   0.00823  -0.1915  0.3471  0.0147  -4.8172   0.0000   0.0000   0.0000  22.2468
  -6.770   0.0108   0.01351   0.00822  -0.1914  0.3471  0.0147  -4.8089   0.0000   0.0000   0.0000  19.8273
  -6.760   0.0120   0.01350   0.00822  -0.1914  0.3471  0.0147  -4.8007   0.0000   0.0000   0.0000  17.8845
  -6.750   0.0131   0.01350   0.00821  -0.1913  0.3470  0.0147  -4.7924   0.0000   0.0000   0.0000  16.2901
  -6.740   0.0143   0.01349   0.00820  -0.1913  0.3470  0.0147  -4.7842   0.0000   0.0000   0.0000  14.9580
  -6.730   0.0155   0.01349   0.00820  -0.1912  0.3470  0.0147  -4.7759   0.0000   0.0000   0.0000  13.8283
  -6.720   0.0167   0.01348   0.00819  -0.1912  0.3470  0.0147  -4.7677   0.0000   0.0000   0.0000  12.8582
  -6.710   0.0179   0.01347   0.00818  -0.1912  0.3470  0.0147  -4.7595   0.0000   0.0000   0.0000  12.0161
  -6.700   0.0191   0.01347   0.00818  -0.1911  0.3469  0.0147  -4.7513   0.0000   0.0000   0.0000  11.2781
  -6.690   0.0203   0.01346   0.00817  -0.1911  0.3469  0.0147  -4.7430   0.0000   0.0000   0.0000  10.6262
  -6.680   0.0215   0.01346   0.00816  -0.1910  0.3469  0.0147  -4.7348   0.0000   0.0000   0.0000  10.0460
  -6.670   0.0226   0.01345   0.00815  -0.1910  0.3469  0.0147  -4.7266   0.0000   0.0000   0.0000   9.5264
  -6.660   0.0238   0.01345   0.00815  -0.1909  0.3469  0.0147  -4.7184   0.0000   0.0000   0.0000   9.0585
  -6.650   0.0250   0.01344   0.00814  -0.1909  0.3469  0.0147  -4.7102   0.0000   0.0000   0.0000   8.6350
  -6.640   0.0262   0.01344   0.00813  -0.1908  0.3469  0.0147  -4.7020   0.0000   0.0000   0.0000   8.2501
  -6.630   0.0274   0.01343   0.00813  -0.1908  0.3468  0.0147  -4.6939   0.0000   0.0000   0.0000   7.8986
  -6.620   0.0286   0.01343   0.00812  -0.1907  0.3468  0.0147  -4.6857   0.0000   0.0000   0.0000   7.5764
  -6.610   0.0298   0.01342   0.00811  -0.1907  0.3468  0.0147  -4.6775   0.0000   0.0000   0.0000   7.2800
  -6.600   0.0310   0.01341   0.00811  -0.1907  0.3468  0.0147  -4.6694   0.0000   0.0000   0.0000   7.0064
  -6.590   0.0322   0.01341   0.00810  -0.1906  0.3468  0.0147  -4.6612   0.0000   0.0000   0.0000   6.7531
  -6.580   0.0334   0.01340   0.00810  -0.1906  0.3468  0.0147  -4.6531   0.0000   0.0000   0.0000   6.5179
  -6.570   0.0346   0.01340   0.00809  -0.1905  0.3467  0.0147  -4.6450   0.0000   0.0000   0.0000   6.2989
  -6.560   0.0358   0.01339   0.00808  -0.1905  0.3467  0.0147  -4.6368   0.0000   0.0000   0.0000   6.0945
  -6.550   0.0370   0.01339   0.00808  -0.1904  0.3467  0.0147  -4.6287   0.0000   0.0000   0.0000   5.9034
  -6.540   0.0382   0.01338   0.00807  -0.1904  0.3467  0.0147  -4.6206   0.0000   0.0000   0.0000   5.7242
  -6.530   0.0394   0.01338   0.00806  -0.1903  0.3467  0.0147  -4.6125   0.0000   0.0000   0.0000   5.5558
  -6.520   0.0406   0.01337   0.00806  -0.1903  0.3467  0.0147  -4.6044   0.0000   0.0000   0.0000   5.3978
  -6.510   0.0418   0.01337   0.00805  -0.1903  0.3467  0.0147  -4.5964   0.0000   0.0000   0.0000   5.2492
  -6.500   0.0429   0.01336   0.00805  -0.1902  0.3466  0.0148  -4.5883   0.0000   0.0000   0.0000   5.1095
  -6.490   0.0441   0.01336   0.00804  -0.1902  0.3466  0.0148  -4.5803   0.0000   0.0000   0.0000   4.9777
  -6.480   0.0453   0.01335   0.00803  -0.1901  0.3466  0.0148  -4.5723   0.0000   0.0000   0.0000   4.8533
  -6.470   0.0465   0.01335   0.00803  -0.1901  0.3466  0.0148  -4.5643   0.0000   0.0000   0.0000   4.7356
  -6.460   0.0476   0.01335   0.00802  -0.1900  0.3466  0.0148  -4.5564   0.0000   0.0000   0.0000   4.6241
  -6.450   0.0488   0.01334   0.00802  -0.1900  0.3466  0.0148  -4.5485   0.0000   0.0000   0.0000   4.5183
  -6.440   0.0499   0.01334   0.00801  -0.1899  0.3466  0.0148  -4.5406   0.0000   0.0000   0.0000   4.4178
  -6.430   0.0511   0.01333   0.00801  -0.1899  0.3465  0.0148  -4.5327   0.0000   0.0000   0.0000   4.3221
  -6.420   0.0522   0.01333   0.00800  -0.1898  0.3465  0.0148  -4.5248   0.0000   0.0000   0.0000   4.2310
  -6.410   0.0534   0.01332   0.00800  -0.1898  0.3465  0.0148  -4.5170   0.0000   0.0000   0.0000   4.1441
  -6.400   0.0545   0.01332   0.00799  -0.1897  0.3465  0.0148  -4.5092   0.0000   0.0000   0.0000   4.0610
  -6.390   0.0557   0.01332   0.00799  -0.1897  0.3465  0.0148  -4.5014   0.0000   0.0000   0.0000   3.9815
  -6.380   0.0568   0.01331   0.00798  -0.1896  0.3465  0.0148  -4.4936   0.0000   0.0000   0.0000   3.9054
  -6.370   0.0579   0.01331   0.00798  -0.1896  0.3465  0.0148  -4.4858   0.0000   0.0000   0.0000   3.8324
  -6.360   0.0591   0.01331   0.00797  -0.1895  0.3464  0.0148  -4.4780   0.0000   0.0000   0.0000   3.7623
  -6.350   0.0602   0.01330   0.00797  -0.1894  0.3464  0.0148  -4.4703   0.0000   0.0000   0.0000   3.6949
  -6.340   0.0613   0.01330   0.00796  -0.1894  0.3464  0.0148  -4.4625   0.0000   0.0000   0.0000   3.6301
  -6.330   0.0624   0.01329   0.00796  -0.1893  0.3464  0.0148  -4.4548   0.0000   0.0000   0.0000   3.5676
  -6.320   0.0636   0.01329   0.00795  -0.1893  0.3464  0.0148  -4.4471   0.0000   0.0000   0.0000   3.5074
  -6.310   0.0647   0.01329   0.00795  -0.1892  0.3464  0.0148  -4.4394   0.0000   0.0000   0.0000   3.4492
  -6.300   0.0658   0.01328   0.00794  -0.1892  0.3464  0.0148  -4.4317   0.0000   0.0000   0.0000   3.3931
  -6.290   0.0670   0.01328   0.00794  -0.1891  0.3463  0.0148  -4.4240   0.0000   0.0000   0.0000   3.3389
  -6.280   0.0681   0.01328   0.00793  -0.1891  0.3463  0.0148  -4.4163   0.0000   0.0000   0.0000   3.2866
  -6.270   0.0692   0.01327   0.00793  -0.1890  0.3463  0.0149  -4.4086   0.0000   0.0000   0.0000   3.2360
  -6.260   0.0703   0.01327   0.00792  -0.1890  0.3463  0.0149  -4.4010   0.0000   0.0000   0.0000   3.1869
  -6.250   0.0715   0.01327   0.00792  -0.1889  0.3463  0.0149  -4.3933   0.0000   0.0000   0.0000   3.1393
  -6.240   0.0726   0.01326   0.00792  -0.1889  0.3463  0.0149  -4.3856   0.0000   0.0000   0.0000   3.0931
  -6.230   0.0737   0.01326   0.00791  -0.1888  0.3462  0.0149  -4.3780   0.0000   0.0000   0.0000   3.0483
  -6.220   0.0748   0.01326   0.00791  -0.1887  0.3462  0.0149  -4.3703   0.0000   0.0000   0.0000   3.0048
  -6.210   0.0760   0.01325   0.00790  -0.1887  0.3462  0.0149  -4.3627   0.0000   0.0000   0.0000   2.9625
  -6.200   0.0771   0.01325   0.00790  -0.1886  0.3462  0.0149  -4.3550   0.0000   0.0000   0.0000   2.9214
  -6.190   0.0782   0.01325   0.00789  -0.1886  0.3462  0.0149  -4.3474   0.0000   0.0000   0.0000   2.8815
  -6.180   0.0794   0.01324   0.00789  -0.1885  0.3462  0.0149  -4.3397   0.0000   0.0000   0.0000   2.8427
  -6.170   0.0805   0.01324   0.00788  -0.1885  0.3462  0.0149  -4.3321   0.0000   0.0000   0.0000   2.8048
  -6.160   0.0817   0.01324   0.00788  -0.1884  0.3461  0.0149  -4.3244   0.0000   0.0000   0.0000   2.7680
  -6.150   0.0828   0.01323   0.00788  -0.1884  0.3461  0.0149  -4.3168   0.0000   0.0000   0.0000   2.7322
  -6.140   0.0840   0.01323   0.00787  -0.1883  0.3461  0.0149  -4.3092   0.0000   0.0000   0.0000   2.6973
  -6.130   0.0851   0.01323   0.00787  -0.1883  0.3461  0.0149  -4.3015   0.0000   0.0000   0.0000   2.6633
  -6.120   0.0862   0.01322   0.00786  -0.1882  0.3461  0.0149  -4.2939   0.0000   0.0000   0.0000   2.6302
  -6.110   0.0874   0.01322   0.00786  -0.1882  0.3461  0.0149  -4.2863   0.0000   0.0000   0.0000   2.5979
  -6.100   0.0885   0.01322   0.00785  -0.1881  0.3461  0.0150  -4.2786   0.0000   0.0000   0.0000   2.5664
  -6.090   0.0897   0.01321   0.00785  -0.1881  0.3460  0.0150  -4.2710   0.0000   0.0000   0.0000   2.5357
  -6.080   0.0909   0.01321   0.00785  -0.1880  0.3460  0.0150  -4.2634   0.0000   0.0000   0.0000   2.5057
  -6.070   0.0920   0.01321   0.00784  -0.1880  0.3460  0.0150  -4.2558   0.0000   0.0000   0.0000   2.4764
  -6.060   0.0932   0.01320   0.00784  -0.1879  0.3460  0.0150  -4.2482   0.0000   0.0000   0.0000   2.4479
  -6.050   0.0943   0.01320   0.00783  -0.1879  0.3460  0.0150  -4.2406   0.0000   0.0000   0.0000   2.4200
  -6.040   0.0955   0.01320   0.00783  -0.1878  0.3460  0.0150  -4.2330   0.0000   0.0000   0.0000   2.3927
  -6.030   0.0966   0.01319   0.00783  -0.1878  0.3460  0.0150  -4.2254   0.0000   0.0000   0.0000   2.3661
  -6.020   0.0978   0.01319   0.00782  -0.1877  0.3459  0.0150  -4.2178   0.0000   0.0000   0.0000   2.3401
  -6.010   0.0990   0.01319   0.00782  -0.1877  0.3459  0.0150  -4.2102   0.0000   0.0000   0.0000   2.3147
  -6.000   0.1001   0.01318   0.00781  -0.1876  0.3459  0.0150  -4.2026   0.0000   0.0000   0.0000   2.2899
  -5.990   0.1013   0.01318   0.00781  -0.1876  0.3459  0.0150  -4.1951   0.0000   0.0000   0.0000   2.2656
  -5.980   0.1025   0.01318   0.00780  -0.1875  0.3459  0.0150  -4.1875   0.0000   0.0000   0.0000   2.2419
  -5.970   0.1036   0.01317   0.00780  -0.1875  0.3459  0.0150  -4.1799   0.0000   0.0000   0.0000   2.2186
  -5.960   0.1048   0.01317   0.00780  -0.1875  0.3459  0.0150  -4.1724   0.0000   0.0000   0.0000   2.1959
  -5.950   0.1060   0.01317   0.00779  -0.1874  0.3458  0.0150  -4.1648   0.0000   0.0000   0.0000   2.1737
  -5.940   0.1071   0.01317   0.00779  -0.1874  0.3458  0.0150  -4.1573   0.0000   0.0000   0.0000   2.1519
  -5.930   0.1083   0.01316   0.00778  -0.1873  0.3458  0.0151  -4.1497   0.0000   0.0000   0.0000   2.1306
  -5.920   0.1095   0.01316   0.00778  -0.1873  0.3458  0.0151  -4.1422   0.0000   0.0000   0.0000   2.1097
  -5.910   0.1106   0.01316   0.00778  -0.1872  0.3458  0.0151  -4.1347   0.0000   0.0000   0.0000   2.0893
  -5.900   0.1118   0.01315   0.00777  -0.1872  0.3458  0.0151  -4.1272   0.0000   0.0000   0.0000   2.0693
  -5.890   0.1130   0.01315   0.00777  -0.1871  0.3458  0.0151  -4.1196   0.0000   0.0000   0.0000   2.0497
  -5.880   0.1141   0.01315   0.00776  -0.1871  0.3457  0.0151  -4.1121   0.0000   0.0000   0.0000   2.0305
  -5.870   0.1153   0.01314   0.00776  -0.1870  0.3457  0.0151  -4.1046   0.0000   0.0000   0.0000   2.0116
  -5.860   0.1165   0.01314   0.00776  -0.1870  0.3457  0.0151  -4.0971   0.0000   0.0000   0.0000   1.9932
  -5.850   0.1177   0.01314   0.00775  -0.1869  0.3457  0.0151  -4.0896   0.0000   0.0000   0.0000   1.9751
  -5.840   0.1188   0.01314   0.00775  -0.1869  0.3457  0.0151  -4.0822   0.0000   0.0000   0.0000   1.9573
  -5.830   0.1200   0.01313   0.00775  -0.1869  0.3457  0.0151  -4.0747   0.0000   0.0000   0.0000   1.9399
  -5.820   0.1212   0.01313   0.00774  -0.1868  0.3457  0.0151  -4.0672   0.0000   0.0000   0.0000   1.9228
  -5.810   0.1224   0.01313   0.00774  -0.1868  0.3456  0.0151  -4.0597   0.0000   0.0000   0.0000   1.9061
  -5.800   0.1235   0.01312   0.00773  -0.1867  0.3456  0.0151  -4.0523   0.0000   0.0000   0.0000   1.8897
  -5.790   0.1247   0.01312   0.00773  -0.1867  0.3456  0.0151  -4.0448   0.0000   0.0000   0.0000   1.8735
  -5.780   0.1259   0.01312   0.00773  -0.1866  0.3456  0.0151  -4.0374   0.0000   0.0000   0.0000   1.8577
  -5.770   0.1271   0.01312   0.00772  -0.1866  0.3456  0.0151  -4.0300   0.0000   0.0000   0.0000   1.8422
  -5.760   0.1283   0.01311   0.00772  -0.1865  0.3456  0.0152  -4.0225   0.0000   0.0000   0.0000   1.8269
  -5.750   0.1294   0.01311   0.00772  -0.1865  0.3456  0.0152  -4.0151   0.0000   0.0000   0.0000   1.8119
  -5.740   0.1306   0.01311   0.00771  -0.1864  0.3455  0.0152  -4.0077   0.0000   0.0000   0.0000   1.7972
  -5.730   0.1318   0.01311   0.00771  -0.1864  0.3455  0.0152  -4.0003   0.0000   0.0000   0.0000   1.7827
  -5.720   0.1330   0.01310   0.00771  -0.1864  0.3455  0.0152  -3.9929   0.0000   0.0000   0.0000   1.7685
  -5.710   0.1341   0.01310   0.00770  -0.1863  0.3455  0.0152  -3.9855   0.0000   0.0000   0.0000   1.7546
  -5.700   0.1353   0.01310   0.00770  -0.1863  0.3455  0.0152  -3.9781   0.0000   0.0000   0.0000   1.7409
  -5.690   0.1365   0.01310   0.00770  -0.1862  0.3455  0.0152  -3.9707   0.0000   0.0000   0.0000   1.7274
  -5.680   0.1377   0.01309   0.00769  -0.1862  0.3455  0.0152  -3.9634   0.0000   0.0000   0.0000   1.7142
  -5.670   0.1389   0.01309   0.00769  -0.1861  0.3455  0.0152  -3.9560   0.0000   0.0000   0.0000   1.7012
  -5.660   0.1400   0.01309   0.00769  -0.1861  0.3454  0.0152  -3.9487   0.0000   0.0000   0.0000   1.6883
  -5.650   0.1412   0.01309   0.00768  -0.1860  0.3454  0.0152  -3.9413   0.0000   0.0000   0.0000   1.6758
  -5.640   0.1424   0.01308   0.00768  -0.1860  0.3454  0.0152  -3.9340   0.0000   0.0000   0.0000   1.6634
  -5.630   0.1436   0.01308   0.00768  -0.1860  0.3454  0.0152  -3.9266   0.0000   0.0000   0.0000   1.6512
  -5.620   0.1448   0.01308   0.00767  -0.1859  0.3454  0.0152  -3.9193   0.0000   0.0000   0.0000   1.6392
  -5.610   0.1459   0.01308   0.00767  -0.1859  0.3454  0.0152  -3.9120   0.0000   0.0000   0.0000   1.6274
  -5.600   0.1471   0.01307   0.00767  -0.1858  0.3454  0.0152  -3.9047   0.0000   0.0000   0.0000   1.6158
  -5.590   0.1483   0.01307   0.00766  -0.1858  0.3453  0.0152  -3.8974   0.0000   0.0000   0.0000   1.6044
  -5.580   0.1495   0.01307   0.00766  -0.1857  0.3453  0.0153  -3.8901   0.0000   0.0000   0.0000   1.5932
  -5.570   0.1507   0.01307   0.00766  -0.1857  0.3453  0.0153  -3.8828   0.0000   0.0000   0.0000   1.5822
  -5.560   0.1518   0.01307   0.00765  -0.1856  0.3453  0.0153  -3.8756   0.0000   0.0000   0.0000   1.5713
  -5.550   0.1530   0.01306   0.00765  -0.1856  0.3453  0.0153  -3.8683   0.0000   0.0000   0.0000   1.5606
  -5.540   0.1542   0.01306   0.00765  -0.1856  0.3453  0.0153  -3.8611   0.0000   0.0000   0.0000   1.5501
  -5.530   0.1554   0.01306   0.00765  -0.1855  0.3453  0.0153  -3.8538   0.0000   0.0000   0.0000   1.5397
  -5.520   0.1565   0.01306   0.00764  -0.1855  0.3452  0.0153  -3.8466   0.0000   0.0000   0.0000   1.5296
  -5.510   0.1577   0.01306   0.00764  -0.1854  0.3452  0.0153  -3.8395   0.0000   0.0000   0.0000   1.5197
  -5.500   0.1588   0.01305   0.00764  -0.1854  0.3452  0.0153  -3.8323   0.0000   0.0000   0.0000   1.5100
  -5.490   0.1600   0.01305   0.00763  -0.1853  0.3452  0.0153  -3.8252   0.0000   0.0000   0.0000   1.5004
  -5.480   0.1611   0.01305   0.00763  -0.1853  0.3452  0.0153  -3.8181   0.0000   0.0000   0.0000   1.4910
  -5.470   0.1622   0.01305   0.00763  -0.1852  0.3452  0.0153  -3.8110   0.0000   0.0000   0.0000   1.4818
  -5.460   0.1634   0.01305   0.00763  -0.1852  0.3452  0.0153  -3.8040   0.0000   0.0000   0.0000   1.4727
  -5.450   0.1645   0.01305   0.00763  -0.1851  0.3452  0.0153  -3.7969   0.0000   0.0000   0.0000   1.4638
  -5.440   0.1656   0.01305   0.00762  -0.1851  0.3451  0.0153  -3.7899   0.0000   0.0000   0.0000   1.4551
  -5.430   0.1667   0.01304   0.00762  -0.1850  0.3451  0.0153  -3.7829   0.0000   0.0000   0.0000   1.4464
  -5.420   0.1679   0.01304   0.00762  -0.1850  0.3451  0.0153  -3.7759   0.0000   0.0000   0.0000   1.4380
  -5.410   0.1690   0.01304   0.00762  -0.1849  0.3451  0.0153  -3.7690   0.0000   0.0000   0.0000   1.4296
  -5.400   0.1701   0.01304   0.00762  -0.1849  0.3451  0.0153  -3.7620   0.0000   0.0000   0.0000   1.4214
  -5.390   0.1712   0.01304   0.00762  -0.1848  0.3451  0.0153  -3.7551   0.0000   0.0000   0.0000   1.4133
  -5.380   0.1723   0.01304   0.00762  -0.1848  0.3451  0.0153  -3.7482   0.0000   0.0000   0.0000   1.4053
  -5.370   0.1734   0.01304   0.00761  -0.1847  0.3451  0.0153  -3.7412   0.0000   0.0000   0.0000   1.3974
  -5.360   0.1745   0.01304   0.00761  -0.1846  0.3450  0.0153  -3.7343   0.0000   0.0000   0.0000   1.3897
  -5.350   0.1756   0.01304   0.00761  -0.1846  0.3450  0.0154  -3.7274   0.0000   0.0000   0.0000   1.3820
  -5.340   0.1767   0.01304   0.00761  -0.1845  0.3450  0.0154  -3.7206   0.0000   0.0000   0.0000   1.3744
  -5.330   0.1778   0.01304   0.00761  -0.1845  0.3450  0.0154  -3.7137   0.0000   0.0000   0.0000   1.3669
  -5.320   0.1789   0.01304   0.00761  -0.1844  0.3450  0.0154  -3.7068   0.0000   0.0000   0.0000   1.3596
  -5.310   0.1800   0.01304   0.00761  -0.1844  0.3450  0.0154  -3.7000   0.0000   0.0000   0.0000   1.3523
  -5.300   0.1811   0.01304   0.00761  -0.1843  0.3450  0.0154  -3.6931   0.0000   0.0000   0.0000   1.3451
  -5.290   0.1822   0.01304   0.00760  -0.1843  0.3450  0.0154  -3.6863   0.0000   0.0000   0.0000   1.3380
  -5.280   0.1833   0.01304   0.00760  -0.1842  0.3449  0.0154  -3.6794   0.0000   0.0000   0.0000   1.3309
  -5.270   0.1844   0.01303   0.00760  -0.1842  0.3449  0.0154  -3.6726   0.0000   0.0000   0.0000   1.3239
  -5.260   0.1855   0.01303   0.00760  -0.1841  0.3449  0.0154  -3.6657   0.0000   0.0000   0.0000   1.3171
  -5.250   0.1866   0.01303   0.00760  -0.1841  0.3449  0.0154  -3.6589   0.0000   0.0000   0.0000   1.3102
  -5.240   0.1877   0.01303   0.00760  -0.1840  0.3449  0.0154  -3.6521   0.0000   0.0000   0.0000   1.3035
  -5.230   0.1888   0.01303   0.00760  -0.1839  0.3449  0.0154  -3.6452   0.0000   0.0000   0.0000   1.2968
  -5.220   0.1900   0.01303   0.00760  -0.1839  0.3449  0.0154  -3.6384   0.0000   0.0000   0.0000   1.2902
  -5.210   0.1911   0.01303   0.00759  -0.1838  0.3449  0.0154  -3.6316   0.0000   0.0000   0.0000   1.2837
  -5.200   0.1922   0.01303   0.00759  -0.1838  0.3448  0.0154  -3.6247   0.0000   0.0000   0.0000   1.2772
  -5.190   0.1933   0.01303   0.00759  -0.1837  0.3448  0.0154  -3.6179   0.0000   0.0000   0.0000   1.2708
  -5.180   0.1944   0.01303   0.00759  -0.1837  0.3448  0.0154  -3.6111   0.0000   0.0000   0.0000   1.2644
  -5.170   0.1956   0.01303   0.00759  -0.1836  0.3448  0.0154  -3.6043   0.0000   0.0000   0.0000   1.2582
  -5.160   0.1967   0.01303   0.00759  -0.1836  0.3448  0.0154  -3.5974   0.0000   0.0000   0.0000   1.2519
  -5.150   0.1978   0.01303   0.00759  -0.1835  0.3448  0.0154  -3.5906   0.0000   0.0000   0.0000   1.2458
  -5.140   0.1989   0.01303   0.00759  -0.1835  0.3448  0.0154  -3.5838   0.0000   0.0000   0.0000   1.2397
  -5.130   0.2001   0.01303   0.00758  -0.1834  0.3448  0.0154  -3.5770   0.0000   0.0000   0.0000   1.2337
  -5.120   0.2012   0.01303   0.00758  -0.1834  0.3447  0.0154  -3.5703   0.0000   0.0000   0.0000   1.2277
  -5.110   0.2023   0.01303   0.00758  -0.1833  0.3447  0.0154  -3.5638   0.0000   0.0000   0.0000   1.2218
  -5.100   0.2035   0.01303   0.00758  -0.1833  0.3447  0.0154  -3.5572   0.0000   0.0000   0.0000   1.2160
  -5.090   0.2046   0.01303   0.00758  -0.1832  0.3447  0.0154  -3.5507   0.0000   0.0000   0.0000   1.2102
  -5.080   0.2057   0.01302   0.00758  -0.1832  0.3447  0.0154  -3.5441   0.0000   0.0000   0.0000   1.2045
  -5.070   0.2069   0.01302   0.00758  -0.1831  0.3447  0.0154  -3.5375   0.0000   0.0000   0.0000   1.1988
  -5.060   0.2080   0.01302   0.00758  -0.1831  0.3447  0.0154  -3.5310   0.0000   0.0000   0.0000   1.1932
  -5.050   0.2092   0.01302   0.00757  -0.1831  0.3447  0.0154  -3.5245   0.0000   0.0000   0.0000   1.1877
  -5.040   0.2103   0.01302   0.00757  -0.1830  0.3447  0.0154  -3.5179   0.0000   0.0000   0.0000   1.1822
  -5.030   0.2114   0.01302   0.00757  -0.1830  0.3446  0.0154  -3.5114   0.0000   0.0000   0.0000   1.1767
  -5.020   0.2126   0.01302   0.00757  -0.1829  0.3446  0.0154  -3.5048   0.0000   0.0000   0.0000   1.1714
  -5.010   0.2137   0.01302   0.00757  -0.1829  0.3446  0.0154  -3.4983   0.0000   0.0000   0.0000   1.1660
  -5.000   0.2149   0.01302   0.00757  -0.1828  0.3446  0.0154  -3.4918   0.0000   0.0000   0.0000   1.1608
  -4.990   0.2160   0.01302   0.00757  -0.1828  0.3446  0.0154  -3.4853   0.0000   0.0000   0.0000   1.1555
  -4.980   0.2172   0.01302   0.00757  -0.1827  0.3446  0.0154  -3.4788   0.0000   0.0000   0.0000   1.1504
  -4.970   0.2183   0.01302   0.00757  -0.1827  0.3446  0.0154  -3.4722   0.0000   0.0000   0.0000   1.1453
  -4.960   0.2195   0.01302   0.00756  -0.1826  0.3446  0.0154  -3.4657   0.0000   0.0000   0.0000   1.1402
  -4.950   0.2206   0.01302   0.00756  -0.1826  0.3446  0.0154  -3.4592   0.0000   0.0000   0.0000   1.1352
  -4.940   0.2218   0.01302   0.00756  -0.1825  0.3445  0.0154  -3.4527   0.0000   0.0000   0.0000   1.1302
  -4.930   0.2229   0.01302   0.00756  -0.1825  0.3445  0.0155  -3.4463   0.0000   0.0000   0.0000   1.1253
  -4.920   0.2241   0.01302   0.00756  -0.1825  0.3445  0.0155  -3.4398   0.0000   0.0000   0.0000   1.1204
  -4.910   0.2252   0.01302   0.00756  -0.1824  0.3445  0.0155  -3.4333   0.0000   0.0000   0.0000   1.1156
  -4.900   0.2264   0.01302   0.00756  -0.1824  0.3445  0.0155  -3.4268   0.0000   0.0000   0.0000   1.1109
  -4.890   0.2275   0.01302   0.00756  -0.1823  0.3445  0.0155  -3.4203   0.0000   0.0000   0.0000   1.1061
  -4.880   0.2287   0.01302   0.00756  -0.1823  0.3445  0.0155  -3.4139   0.0000   0.0000   0.0000   1.1015
  -4.870   0.2298   0.01301   0.00755  -0.1822  0.3445  0.0155  -3.4074   0.0000   0.0000   0.0000   1.0968
  -4.860   0.2310   0.01301   0.00755  -0.1822  0.3445  0.0155  -3.4009   0.0000   0.0000   0.0000   1.0922
  -4.850   0.2322   0.01301   0.00755  -0.1821  0.3445  0.0155  -3.3945   0.0000   0.0000   0.0000   1.0877
  -4.840   0.2333   0.01301   0.00755  -0.1821  0.3444  0.0155  -3.3880   0.0000   0.0000   0.0000   1.0831
  -4.830   0.2345   0.01301   0.00755  -0.1820  0.3444  0.0155  -3.3816   0.0000   0.0000   0.0000   1.0787
  -4.820   0.2356   0.01301   0.00755  -0.1820  0.3444  0.0155  -3.3752   0.0000   0.0000   0.0000   1.0743
  -4.810   0.2368   0.01301   0.00755  -0.1820  0.3444  0.0155  -3.3687   0.0000   0.0000   0.0000   1.0699
  -4.800   0.2380   0.01301   0.00755  -0.1819  0.3444  0.0155  -3.3623   0.0000   0.0000   0.0000   1.0655
  -4.790   0.2391   0.01301   0.00755  -0.1819  0.3444  0.0155  -3.3559   0.0000   0.0000   0.0000   1.0613
  -4.780   0.2403   0.01301   0.00755  -0.1818  0.3444  0.0155  -3.3495   0.0000   0.0000   0.0000   1.0570
  -4.770   0.2414   0.01301   0.00754  -0.1818  0.3444  0.0155  -3.3431   0.0000   0.0000   0.0000   1.0528
  -4.760   0.2426   0.01301   0.00754  -0.1817  0.3444  0.0155  -3.3367   0.0000   0.0000   0.0000   1.0486
  -4.750   0.2438   0.01301   0.00754  -0.1817  0.3444  0.0155  -3.3303   0.0000   0.0000   0.0000   1.0445
  -4.740   0.2449   0.01301   0.00754  -0.1817  0.3444  0.0155  -3.3239   0.0000   0.0000   0.0000   1.0404
  -4.730   0.2461   0.01301   0.00754  -0.1816  0.3444  0.0155  -3.3175   0.0000   0.0000   0.0000   1.0363
  -4.720   0.2472   0.01301   0.00754  -0.1816  0.3444  0.0155  -3.3111   0.0000   0.0000   0.0000   1.0323
  -4.710   0.2484   0.01301   0.00754  -0.1815  0.3444  0.0155  -3.3047   0.0000   0.0000   0.0000   1.0283
  -4.700   0.2496   0.01301   0.00754  -0.1815  0.3444  0.0155  -3.2984   0.0000   0.0000   0.0000   1.0244
  -4.690   0.2507   0.01301   0.00754  -0.1814  0.3443  0.0155  -3.2920   0.0000   0.0000   0.0000   1.0205
  -4.680   0.2519   0.01301   0.00754  -0.1814  0.3443  0.0155  -3.2857   0.0000   0.0000   0.0000   1.0166
  -4.670   0.2530   0.01301   0.00754  -0.1814  0.3443  0.0155  -3.2793   0.0000   0.0000   0.0000   1.0128
  -4.660   0.2542   0.01301   0.00754  -0.1813  0.3443  0.0155  -3.2730   0.0000   0.0000   0.0000   1.0090
  -4.650   0.2554   0.01301   0.00754  -0.1813  0.3443  0.0155  -3.2666   0.0000   0.0000   0.0000   1.0052
[...]
  -1.840   0.5568   0.01412   0.00859  -0.1675  0.3402  0.0171  -2.3205   0.0000   0.0000   0.0000   0.5525
  -1.830   0.5579   0.01412   0.00859  -0.1675  0.3402  0.0171  -2.3217   0.0000   0.0000   0.0000   0.5518
  -1.820   0.5589   0.01413   0.00860  -0.1674  0.3401  0.0171  -2.3230   0.0000   0.0000   0.0000   0.5511
  -1.810   0.5600   0.01414   0.00861  -0.1674  0.3401  0.0171  -2.3242   0.0000   0.0000   0.0000   0.5504
  -1.800   0.5610   0.01414   0.00862  -0.1673  0.3401  0.0171  -2.3254   0.0000   0.0000   0.0000   0.5497
  -1.790   0.5620   0.01415   0.00862  -0.1673  0.3400  0.0171  -2.3266   0.0000   0.0000   0.0000   0.5490
  -1.780   0.5631   0.01416   0.00863  -0.1672  0.3400  0.0172  -2.3279   0.0000   0.0000   0.0000   0.5483
  -1.770   0.5641   0.01417   0.00864  -0.1672  0.3400  0.0172  -2.3291   0.0000   0.0000   0.0000   0.5476
  -1.760   0.5652   0.01417   0.00864  -0.1671  0.3399  0.0172  -2.3303   0.0000   0.0000   0.0000   0.5469
  -1.750   0.5662   0.01418   0.00865  -0.1671  0.3399  0.0172  -2.3315   0.0000   0.0000   0.0000   0.5462
  -1.740   0.5672   0.01419   0.00866  -0.1670  0.3398  0.0172  -2.3328   0.0000   0.0000   0.0000   0.5455
  -1.730   0.5683   0.01419   0.00867  -0.1670  0.3398  0.0172  -2.3340   0.0000   0.0000   0.0000   0.5448
  -1.720   0.5693   0.01420   0.00867  -0.1669  0.3398  0.0172  -2.3352   0.0000   0.0000   0.0000   0.5441
  -1.710   0.5703   0.01421   0.00868  -0.1669  0.3397  0.0172  -2.3364   0.0000   0.0000   0.0000   0.5434
  -1.700   0.5714   0.01422   0.00869  -0.1669  0.3397  0.0172  -2.3377   0.0000   0.0000   0.0000   0.5427
  -1.690   0.5724   0.01422   0.00869  -0.1668  0.3397  0.0172  -2.3389   0.0000   0.0000   0.0000   0.5421
  -1.680   0.5735   0.01423   0.00870  -0.1668  0.3396  0.0172  -2.3401   0.0000   0.0000   0.0000   0.5414
  -1.670   0.5745   0.01424   0.00871  -0.1667  0.3396  0.0172  -2.3413   0.0000   0.0000   0.0000   0.5407
  -1.660   0.5755   0.01424   0.00872  -0.1667  0.3396  0.0172  -2.3425   0.0000   0.0000   0.0000   0.5400
  -1.650   0.5766   0.01425   0.00872  -0.1666  0.3396  0.0172  -2.3438   0.0000   0.0000   0.0000   0.5394
  -1.640   0.5776   0.01426   0.00873  -0.1666  0.3395  0.0172  -2.3450   0.0000   0.0000   0.0000   0.5387
  -1.630   0.5786   0.01427   0.00874  -0.1665  0.3395  0.0172  -2.3462   0.0000   0.0000   0.0000   0.5380
  -1.620   0.5797   0.01427   0.00875  -0.1665  0.3395  0.0172  -2.3474   0.0000   0.0000   0.0000   0.5374
  -1.610   0.5807   0.01428   0.00875  -0.1664  0.3394  0.0172  -2.3487   0.0000   0.0000   0.0000   0.5367
  -1.600   0.5817   0.01429   0.00876  -0.1664  0.3394  0.0172  -2.3499   0.0000   0.0000   0.0000   0.5360
  -1.590   0.5828   0.01430   0.00877  -0.1663  0.3394  0.0173  -2.3511   0.0000   0.0000   0.0000   0.5354
  -1.580   0.5838   0.01430   0.00878  -0.1663  0.3393  0.0173  -2.3523   0.0000   0.0000   0.0000   0.5347
  -1.570   0.5848   0.01431   0.00878  -0.1662  0.3393  0.0173  -2.3535   0.0000   0.0000   0.0000   0.5341
  -1.560   0.5858   0.01432   0.00879  -0.1662  0.3393  0.0173  -2.3547   0.0000   0.0000   0.0000   0.5335
  -1.550   0.5868   0.01433   0.00880  -0.1661  0.3392  0.0173  -2.3559   0.0000   0.0000   0.0000   0.5328
  -1.540   0.5878   0.01434   0.00881  -0.1661  0.3392  0.0173  -2.3570   0.0000   0.0000   0.0000   0.5322
  -1.530   0.5887   0.01435   0.00882  -0.1660  0.3392  0.0173  -2.3582   0.0000   0.0000   0.0000   0.5316
  -1.520   0.5897   0.01436   0.00883  -0.1660  0.3392  0.0173  -2.3593   0.0000   0.0000   0.0000   0.5309
  -1.510   0.5906   0.01437   0.00884  -0.1659  0.3391  0.0173  -2.3605   0.0000   0.0000   0.0000   0.5303
  -1.500   0.5916   0.01438   0.00885  -0.1659  0.3391  0.0173  -2.3616   0.0000   0.0000   0.0000   0.5297
  -1.490   0.5925   0.01439   0.00886  -0.1658  0.3391  0.0173  -2.3627   0.0000   0.0000   0.0000   0.5291
  -1.480   0.5934   0.01440   0.00887  -0.1657  0.3391  0.0173  -2.3638   0.0000   0.0000   0.0000   0.5285
  -1.470   0.5943   0.01441   0.00888  -0.1657  0.3390  0.0173  -2.3649   0.0000   0.0000   0.0000   0.5279
  -1.460   0.5953   0.01442   0.00889  -0.1656  0.3390  0.0173  -2.3660   0.0000   0.0000   0.0000   0.5273
  -1.450   0.5962   0.01443   0.00890  -0.1655  0.3390  0.0173  -2.3671   0.0000   0.0000   0.0000   0.5267
  -1.440   0.5971   0.01444   0.00892  -0.1655  0.3390  0.0173  -2.3682   0.0000   0.0000   0.0000   0.5261
  -1.430   0.5980   0.01445   0.00893  -0.1654  0.3389  0.0173  -2.3693   0.0000   0.0000   0.0000   0.5255
  -1.420   0.5989   0.01446   0.00894  -0.1654  0.3389  0.0173  -2.3704   0.0000   0.0000   0.0000   0.5249
  -1.410   0.5998   0.01448   0.00895  -0.1653  0.3389  0.0173  -2.3715   0.0000   0.0000   0.0000   0.5244
  -1.400   0.6007   0.01449   0.00896  -0.1652  0.3389  0.0173  -2.3726   0.0000   0.0000   0.0000   0.5238
  -1.390   0.6017   0.01450   0.00897  -0.1652  0.3388  0.0174  -2.3737   0.0000   0.0000   0.0000   0.5232
  -1.380   0.6026   0.01451   0.00898  -0.1651  0.3388  0.0174  -2.3748   0.0000   0.0000   0.0000   0.5226
  -1.370   0.6035   0.01452   0.00899  -0.1651  0.3388  0.0174  -2.3759   0.0000   0.0000   0.0000   0.5220
  -1.360   0.6045   0.01453   0.00900  -0.1650  0.3388  0.0174  -2.3771   0.0000   0.0000   0.0000   0.5214
  -1.350   0.6054   0.01454   0.00901  -0.1649  0.3388  0.0174  -2.3782   0.0000   0.0000   0.0000   0.5208
  -1.340   0.6064   0.01455   0.00903  -0.1649  0.3388  0.0174  -2.3793   0.0000   0.0000   0.0000   0.5203
  -1.330   0.6073   0.01456   0.00904  -0.1648  0.3387  0.0174  -2.3805   0.0000   0.0000   0.0000   0.5197
  -1.320   0.6083   0.01457   0.00905  -0.1648  0.3387  0.0174  -2.3816   0.0000   0.0000   0.0000   0.5191
  -1.310   0.6093   0.01458   0.00906  -0.1647  0.3387  0.0174  -2.3828   0.0000   0.0000   0.0000   0.5185
  -1.300   0.6102   0.01459   0.00907  -0.1647  0.3387  0.0174  -2.3839   0.0000   0.0000   0.0000   0.5179
  -1.290   0.6112   0.01460   0.00908  -0.1646  0.3387  0.0174  -2.3851   0.0000   0.0000   0.0000   0.5174
  -1.280   0.6122   0.01461   0.00908  -0.1646  0.3387  0.0174  -2.3863   0.0000   0.0000   0.0000   0.5168
  -1.270   0.6132   0.01462   0.00909  -0.1645  0.3387  0.0174  -2.3874   0.0000   0.0000   0.0000   0.5162
  -1.260   0.6142   0.01463   0.00910  -0.1645  0.3386  0.0174  -2.3886   0.0000   0.0000   0.0000   0.5156
  -1.250   0.6152   0.01464   0.00911  -0.1644  0.3386  0.0174  -2.3898   0.0000   0.0000   0.0000   0.5150
  -1.240   0.6162   0.01465   0.00912  -0.1644  0.3386  0.0174  -2.3909   0.0000   0.0000   0.0000   0.5145
  -1.230   0.6172   0.01466   0.00913  -0.1643  0.3386  0.0174  -2.3921   0.0000   0.0000   0.0000   0.5139
  -1.220   0.6182   0.01467   0.00914  -0.1643  0.3386  0.0174  -2.3933   0.0000   0.0000   0.0000   0.5133
  -1.210   0.6192   0.01467   0.00915  -0.1642  0.3386  0.0174  -2.3945   0.0000   0.0000   0.0000   0.5128
  -1.200   0.6202   0.01468   0.00916  -0.1642  0.3386  0.0174  -2.3957   0.0000   0.0000   0.0000   0.5122
  -1.190   0.6212   0.01469   0.00917  -0.1641  0.3386  0.0174  -2.3969   0.0000   0.0000   0.0000   0.5116
  -1.180   0.6222   0.01470   0.00918  -0.1641  0.3385  0.0175  -2.3981   0.0000   0.0000   0.0000   0.5111
  -1.170   0.6232   0.01471   0.00919  -0.1640  0.3385  0.0175  -2.3993   0.0000   0.0000   0.0000   0.5105
  -1.160   0.6242   0.01472   0.00920  -0.1640  0.3385  0.0175  -2.4004   0.0000   0.0000   0.0000   0.5099
  -1.150   0.6252   0.01473   0.00921  -0.1639  0.3385  0.0175  -2.4016   0.0000   0.0000   0.0000   0.5094
  -1.140   0.6262   0.01474   0.00922  -0.1639  0.3385  0.0175  -2.4028   0.0000   0.0000   0.0000   0.5088
  -1.130   0.6272   0.01475   0.00922  -0.1638  0.3385  0.0175  -2.4040   0.0000   0.0000   0.0000   0.5083
  -1.120   0.6282   0.01476   0.00923  -0.1638  0.3385  0.0175  -2.4052   0.0000   0.0000   0.0000   0.5077
  -1.110   0.6293   0.01476   0.00924  -0.1637  0.3385  0.0175  -2.4064   0.0000   0.0000   0.0000   0.5071
  -1.100   0.6303   0.01477   0.00925  -0.1637  0.3384  0.0175  -2.4076   0.0000   0.0000   0.0000   0.5066
  -1.090   0.6313   0.01478   0.00926  -0.1636  0.3384  0.0175  -2.4089   0.0000   0.0000   0.0000   0.5060
  -1.080   0.6323   0.01479   0.00927  -0.1636  0.3384  0.0175  -2.4101   0.0000   0.0000   0.0000   0.5055
  -1.070   0.6333   0.01480   0.00928  -0.1636  0.3384  0.0175  -2.4113   0.0000   0.0000   0.0000   0.5049
  -1.060   0.6344   0.01481   0.00929  -0.1635  0.3384  0.0175  -2.4125   0.0000   0.0000   0.0000   0.5044
  -1.050   0.6354   0.01482   0.00930  -0.1635  0.3384  0.0175  -2.4137   0.0000   0.0000   0.0000   0.5038
  -1.040   0.6364   0.01483   0.00931  -0.1634  0.3384  0.0175  -2.4149   0.0000   0.0000   0.0000   0.5033
  -1.030   0.6374   0.01483   0.00931  -0.1634  0.3384  0.0175  -2.4161   0.0000   0.0000   0.0000   0.5028
  -1.020   0.6385   0.01484   0.00932  -0.1633  0.3383  0.0175  -2.4173   0.0000   0.0000   0.0000   0.5022
  -1.010   0.6395   0.01485   0.00933  -0.1633  0.3383  0.0175  -2.4185   0.0000   0.0000   0.0000   0.5017
  -1.000   0.6405   0.01486   0.00934  -0.1632  0.3383  0.0176  -2.4197   0.0000   0.0000   0.0000   0.5011
  -0.990   0.6416   0.01487   0.00935  -0.1632  0.3383  0.0176  -2.4209   0.0000   0.0000   0.0000   0.5006
  -0.980   0.6426   0.01488   0.00936  -0.1632  0.3383  0.0176  -2.4222   0.0000   0.0000   0.0000   0.5001
  -0.970   0.6436   0.01489   0.00937  -0.1631  0.3383  0.0176  -2.4234   0.0000   0.0000   0.0000   0.4995
  -0.960   0.6446   0.01490   0.00938  -0.1631  0.3383  0.0176  -2.4246   0.0000   0.0000   0.0000   0.4990
  -0.950   0.6457   0.01490   0.00939  -0.1630  0.3383  0.0176  -2.4258   0.0000   0.0000   0.0000   0.4985
  -0.940   0.6467   0.01491   0.00939  -0.1630  0.3382  0.0176  -2.4270   0.0000   0.0000   0.0000   0.4980
  -0.930   0.6477   0.01492   0.00940  -0.1629  0.3382  0.0176  -2.4282   0.0000   0.0000   0.0000   0.4974
  -0.920   0.6487   0.01493   0.00941  -0.1629  0.3382  0.0177  -2.4294   0.0000   0.0000   0.0000   0.4969
  -0.910   0.6498   0.01494   0.00942  -0.1628  0.3382  0.0177  -2.4307   0.0000   0.0000   0.0000   0.4964
  -0.900   0.6508   0.01495   0.00943  -0.1628  0.3382  0.0177  -2.4319   0.0000   0.0000   0.0000   0.4959
  -0.890   0.6518   0.01496   0.00944  -0.1628  0.3382  0.0177  -2.4331   0.0000   0.0000   0.0000   0.4954
  -0.880   0.6529   0.01497   0.00945  -0.1627  0.3382  0.0177  -2.4343   0.0000   0.0000   0.0000   0.4948
  -0.870   0.6539   0.01497   0.00946  -0.1627  0.3382  0.0177  -2.4355   0.0000   0.0000   0.0000   0.4943
  -0.860   0.6549   0.01498   0.00947  -0.1626  0.3381  0.0177  -2.4367   0.0000   0.0000   0.0000   0.4938
  -0.850   0.6560   0.01499   0.00948  -0.1626  0.3381  0.0178  -2.4379   0.0000   0.0000   0.0000   0.4933
  -0.840   0.6570   0.01500   0.00948  -0.1625  0.3381  0.0178  -2.4392   0.0000   0.0000   0.0000   0.4928
  -0.830   0.6580   0.01501   0.00949  -0.1625  0.3381  0.0178  -2.4404   0.0000   0.0000   0.0000   0.4923
  -0.820   0.6591   0.01502   0.00950  -0.1624  0.3381  0.0178  -2.4416   0.0000   0.0000   0.0000   0.4918
  -0.810   0.6601   0.01503   0.00951  -0.1624  0.3381  0.0178  -2.4428   0.0000   0.0000   0.0000   0.4913
  -0.800   0.6611   0.01504   0.00952  -0.1624  0.3381  0.0178  -2.4440   0.0000   0.0000   0.0000   0.4908
  -0.790   0.6621   0.01505   0.00953  -0.1623  0.3381  0.0179  -2.4453   0.0000   0.0000   0.0000   0.4903
  -0.780   0.6632   0.01505   0.00954  -0.1623  0.3380  0.0179  -2.4465   0.0000   0.0000   0.0000   0.4898
  -0.770   0.6642   0.01506   0.00955  -0.1622  0.3380  0.0179  -2.4477   0.0000   0.0000   0.0000   0.4893
  -0.760   0.6652   0.01507   0.00956  -0.1622  0.3380  0.0179  -2.4489   0.0000   0.0000   0.0000   0.4888
  -0.750   0.6663   0.01508   0.00957  -0.1621  0.3380  0.0179  -2.4501   0.0000   0.0000   0.0000   0.4883
  -0.740   0.6673   0.01509   0.00958  -0.1621  0.3380  0.0180  -2.4513   0.0000   0.0000   0.0000   0.4878
  -0.730   0.6683   0.01510   0.00959  -0.1621  0.3380  0.0180  -2.4526   0.0000   0.0000   0.0000   0.4873
  -0.720   0.6694   0.01511   0.00959  -0.1620  0.3380  0.0180  -2.4538   0.0000   0.0000   0.0000   0.4868
  -0.710   0.6704   0.01512   0.00960  -0.1620  0.3379  0.0180  -2.4550   0.0000   0.0000   0.0000   0.4863
  -0.700   0.6714   0.01513   0.00961  -0.1619  0.3379  0.0180  -2.4562   0.0000   0.0000   0.0000   0.4858
  -0.690   0.6724   0.01514   0.00962  -0.1619  0.3379  0.0181  -2.4574   0.0000   0.0000   0.0000   0.4853
  -0.680   0.6735   0.01514   0.00963  -0.1618  0.3379  0.0181  -2.4586   0.0000   0.0000   0.0000   0.4848
  -0.670   0.6745   0.01515   0.00964  -0.1618  0.3379  0.0181  -2.4598   0.0000   0.0000   0.0000   0.4844
  -0.660   0.6755   0.01516   0.00965  -0.1617  0.3379  0.0181  -2.4610   0.0000   0.0000   0.0000   0.4839
  -0.650   0.6765   0.01517   0.00966  -0.1617  0.3379  0.0182  -2.4622   0.0000   0.0000   0.0000   0.4834
  -0.640   0.6775   0.01518   0.00967  -0.1617  0.3379  0.0182  -2.4634   0.0000   0.0000   0.0000   0.4829
  -0.630   0.6785   0.01519   0.00968  -0.1616  0.3378  0.0182  -2.4646   0.0000   0.0000   0.0000   0.4825
  -0.620   0.6794   0.01520   0.00969  -0.1616  0.3378  0.0182  -2.4657   0.0000   0.0000   0.0000   0.4820
  -0.610   0.6804   0.01522   0.00971  -0.1615  0.3378  0.0183  -2.4669   0.0000   0.0000   0.0000   0.4815
  -0.600   0.6813   0.01523   0.00972  -0.1614  0.3378  0.0183  -2.4680   0.0000   0.0000   0.0000   0.4811
  -0.590   0.6823   0.01524   0.00973  -0.1614  0.3378  0.0183  -2.4691   0.0000   0.0000   0.0000   0.4806
  -0.580   0.6832   0.01525   0.00974  -0.1613  0.3378  0.0183  -2.4702   0.0000   0.0000   0.0000   0.4802
  -0.570   0.6841   0.01526   0.00976  -0.1613  0.3378  0.0184  -2.4713   0.0000   0.0000   0.0000   0.4797
  -0.560   0.6850   0.01528   0.00977  -0.1612  0.3378  0.0184  -2.4724   0.0000   0.0000   0.0000   0.4793
  -0.550   0.6859   0.01529   0.00978  -0.1612  0.3377  0.0184  -2.4734   0.0000   0.0000   0.0000   0.4788
  -0.540   0.6868   0.01530   0.00980  -0.1611  0.3377  0.0185  -2.4745   0.0000   0.0000   0.0000   0.4784
  -0.530   0.6877   0.01532   0.00981  -0.1610  0.3377  0.0185  -2.4756   0.0000   0.0000   0.0000   0.4779
  -0.520   0.6886   0.01533   0.00982  -0.1610  0.3377  0.0185  -2.4766   0.0000   0.0000   0.0000   0.4775
  -0.510   0.6894   0.01534   0.00984  -0.1609  0.3377  0.0185  -2.4777   0.0000   0.0000   0.0000   0.4771
  -0.500   0.6903   0.01536   0.00985  -0.1609  0.3377  0.0186  -2.4788   0.0000   0.0000   0.0000   0.4766
  -0.490   0.6912   0.01537   0.00987  -0.1608  0.3377  0.0186  -2.4798   0.0000   0.0000   0.0000   0.4762
  -0.480   0.6921   0.01538   0.00988  -0.1607  0.3377  0.0186  -2.4809   0.0000   0.0000   0.0000   0.4757
  -0.470   0.6930   0.01540   0.00989  -0.1607  0.3376  0.0186  -2.4820   0.0000   0.0000   0.0000   0.4753
  -0.460   0.6939   0.01541   0.00991  -0.1606  0.3376  0.0187  -2.4830   0.0000   0.0000   0.0000   0.4749
  -0.450   0.6948   0.01542   0.00992  -0.1606  0.3376  0.0187  -2.4841   0.0000   0.0000   0.0000   0.4744
  -0.440   0.6957   0.01544   0.00994  -0.1605  0.3376  0.0187  -2.4852   0.0000   0.0000   0.0000   0.4740
  -0.430   0.6966   0.01545   0.00995  -0.1604  0.3376  0.0187  -2.4863   0.0000   0.0000   0.0000   0.4736
  -0.420   0.6975   0.01546   0.00996  -0.1604  0.3376  0.0188  -2.4874   0.0000   0.0000   0.0000   0.4731
  -0.410   0.6984   0.01548   0.00997  -0.1603  0.3376  0.0188  -2.4885   0.0000   0.0000   0.0000   0.4727
  -0.400   0.6994   0.01549   0.00999  -0.1603  0.3375  0.0188  -2.4896   0.0000   0.0000   0.0000   0.4723
  -0.390   0.7003   0.01550   0.01000  -0.1602  0.3375  0.0188  -2.4907   0.0000   0.0000   0.0000   0.4718
  -0.380   0.7012   0.01551   0.01001  -0.1602  0.3375  0.0189  -2.4919   0.0000   0.0000   0.0000   0.4714
  -0.370   0.7022   0.01552   0.01003  -0.1601  0.3375  0.0189  -2.4930   0.0000   0.0000   0.0000   0.4710
  -0.360   0.7031   0.01554   0.01004  -0.1601  0.3375  0.0189  -2.4941   0.0000   0.0000   0.0000   0.4706
  -0.350   0.7041   0.01555   0.01005  -0.1600  0.3375  0.0189  -2.4952   0.0000   0.0000   0.0000   0.4701
  -0.340   0.7050   0.01556   0.01006  -0.1600  0.3375  0.0189  -2.4964   0.0000   0.0000   0.0000   0.4697
  -0.330   0.7060   0.01557   0.01007  -0.1599  0.3375  0.0190  -2.4975   0.0000   0.0000   0.0000   0.4693
  -0.320   0.7069   0.01558   0.01009  -0.1599  0.3374  0.0190  -2.4987   0.0000   0.0000   0.0000   0.4688
  -0.310   0.7079   0.01560   0.01010  -0.1598  0.3374  0.0190  -2.4998   0.0000   0.0000   0.0000   0.4684
  -0.300   0.7089   0.01561   0.01011  -0.1598  0.3374  0.0190  -2.5009   0.0000   0.0000   0.0000   0.4680
  -0.290   0.7098   0.01562   0.01012  -0.1597  0.3374  0.0190  -2.5021   0.0000   0.0000   0.0000   0.4676
  -0.280   0.7108   0.01563   0.01013  -0.1597  0.3374  0.0190  -2.5032   0.0000   0.0000   0.0000   0.4671
  -0.270   0.7118   0.01564   0.01015  -0.1596  0.3374  0.0191  -2.5044   0.0000   0.0000   0.0000   0.4667
  -0.260   0.7128   0.01565   0.01016  -0.1596  0.3374  0.0191  -2.5056   0.0000   0.0000   0.0000   0.4663
  -0.250   0.7137   0.01566   0.01017  -0.1595  0.3374  0.0191  -2.5067   0.0000   0.0000   0.0000   0.4659
  -0.240   0.7147   0.01568   0.01018  -0.1595  0.3373  0.0191  -2.5079   0.0000   0.0000   0.0000   0.4654
  -0.230   0.7157   0.01569   0.01019  -0.1594  0.3373  0.0191  -2.5091   0.0000   0.0000   0.0000   0.4650
  -0.220   0.7167   0.01570   0.01020  -0.1594  0.3373  0.0191  -2.5102   0.0000   0.0000   0.0000   0.4646
  -0.210   0.7177   0.01571   0.01022  -0.1593  0.3373  0.0191  -2.5114   0.0000   0.0000   0.0000   0.4642
  -0.200   0.7187   0.01572   0.01023  -0.1593  0.3373  0.0191  -2.5126   0.0000   0.0000   0.0000   0.4638
  -0.190   0.7196   0.01573   0.01024  -0.1592  0.3373  0.0191  -2.5137   0.0000   0.0000   0.0000   0.4634
  -0.180   0.7206   0.01574   0.01025  -0.1592  0.3373  0.0192  -2.5149   0.0000   0.0000   0.0000   0.4629
  -0.170   0.7216   0.01575   0.01026  -0.1591  0.3372  0.0192  -2.5161   0.0000   0.0000   0.0000   0.4625
  -0.160   0.7226   0.01577   0.01027  -0.1591  0.3372  0.0192  -2.5173   0.0000   0.0000   0.0000   0.4621
  -0.150   0.7236   0.01578   0.01028  -0.1591  0.3372  0.0192  -2.5184   0.0000   0.0000   0.0000   0.4617
  -0.140   0.7246   0.01579   0.01030  -0.1590  0.3372  0.0192  -2.5196   0.0000   0.0000   0.0000   0.4613
  -0.130   0.7256   0.01580   0.01031  -0.1590  0.3372  0.0192  -2.5208   0.0000   0.0000   0.0000   0.4609
  -0.120   0.7266   0.01581   0.01032  -0.1589  0.3372  0.0192  -2.5220   0.0000   0.0000   0.0000   0.4605
  -0.110   0.7276   0.01582   0.01033  -0.1589  0.3372  0.0192  -2.5232   0.0000   0.0000   0.0000   0.4601
  -0.100   0.7286   0.01583   0.01034  -0.1588  0.3372  0.0192  -2.5244   0.0000   0.0000   0.0000   0.4597
  -0.090   0.7296   0.01584   0.01035  -0.1588  0.3371  0.0192  -2.5255   0.0000   0.0000   0.0000   0.4593
  -0.080   0.7306   0.01586   0.01036  -0.1587  0.3371  0.0192  -2.5267   0.0000   0.0000   0.0000   0.4589
  -0.070   0.7316   0.01587   0.01038  -0.1587  0.3371  0.0193  -2.5279   0.0000   0.0000   0.0000   0.4585
  -0.060   0.7326   0.01588   0.01039  -0.1587  0.3371  0.0193  -2.5291   0.0000   0.0000   0.0000   0.4580
  -0.050   0.7336   0.01589   0.01040  -0.1586  0.3371  0.0193  -2.5303   0.0000   0.0000   0.0000   0.4576
  -0.040   0.7346   0.01590   0.01041  -0.1586  0.3371  0.0193  -2.5315   0.0000   0.0000   0.0000   0.4572
  -0.030   0.7356   0.01591   0.01042  -0.1585  0.3371  0.0193  -2.5327   0.0000   0.0000   0.0000   0.4569
  -0.020   0.7366   0.01592   0.01043  -0.1585  0.3371  0.0193  -2.5338   0.0000   0.0000   0.0000   0.4565
  -0.010   0.7376   0.01593   0.01044  -0.1584  0.3370  0.0193  -2.5350   0.0000   0.0000   0.0000   0.4561
   0.000   0.7386   0.01594   0.01046  -0.1584  0.3370  0.0193  -2.5362   0.0000   0.0000   0.0000   0.4557


