xflr5 v6.61

 Calculated polar for: Airfoil-RevE-HC

 1 1 Reynolds number fixed          Mach number fixed         

 xtrf =   1.000 (top)        1.000 (bottom)
 Mach =   0.000     Re =     6.000 e 6     Ncrit =   0.500

  alpha     CL        CD       CDp       Cm    Top Xtr Bot Xtr   Cpmin    Chinge    XCp    
 ------- -------- --------- --------- -------- ------- ------- -------- --------- ---------
 -12.000  -0.3285   0.01406   0.00806  -0.2000  0.3591  0.0143  -5.9037   0.0000   0.0000   0.0000  -0.4555
 -11.990  -0.3277   0.01405   0.00805  -0.2000  0.3591  0.0143  -5.8984   0.0000   0.0000   0.0000  -0.4569
 -11.980  -0.3269   0.01404   0.00804  -0.1999  0.3591  0.0143  -5.8931   0.0000   0.0000   0.0000  -0.4584
 -11.970  -0.3262   0.01403   0.00803  -0.1999  0.3591  0.0143  -5.8878   0.0000   0.0000   0.0000  -0.4598
 -11.960  -0.3254   0.01402   0.00802  -0.1998  0.3591  0.0143  -5.8824   0.0000   0.0000   0.0000  -0.4613
 -11.950  -0.3246   0.01401   0.00800  -0.1998  0.3590  0.0143  -5.8771   0.0000   0.0000   0.0000  -0.4628
 -11.940  -0.3238   0.01400   0.00799  -0.1998  0.3590  0.0143  -5.8718   0.0000   0.0000   0.0000  -0.4643
 -11.930  -0.3230   0.01399   0.00798  -0.1997  0.3590  0.0144  -5.8664   0.0000   0.0000   0.0000  -0.4658
 -11.920  -0.3223   0.01398   0.00797  -0.1997  0.3590  0.0144  -5.8611   0.0000   0.0000   0.0000  -0.4673
 -11.910  -0.3215   0.01396   0.00796  -0.1996  0.3590  0.0144  -5.8558   0.0000   0.0000   0.0000  -0.4688
 -11.900  -0.3207   0.01395   0.00795  -0.1996  0.3590  0.0144  -5.8504   0.0000   0.0000   0.0000  -0.4703
 -11.890  -0.3199   0.01394   0.00794  -0.1995  0.3589  0.0144  -5.8451   0.0000   0.0000   0.0000  -0.4719
 -11.880  -0.3191   0.01393   0.00793  -0.1995  0.3589  0.0144  -5.8397   0.0000   0.0000   0.0000  -0.4734
 -11.870  -0.3183   0.01392   0.00792  -0.1995  0.3589  0.0144  -5.8344   0.0000   0.0000   0.0000  -0.4750
 -11.860  -0.3175   0.01391   0.00791  -0.1994  0.3589  0.0144  -5.8290   0.0000   0.0000   0.0000  -0.4766
 -11.850  -0.3167   0.01390   0.00790  -0.1994  0.3589  0.0144  -5.8237   0.0000   0.0000   0.0000  -0.4781
 -11.840  -0.3159   0.01389   0.00789  -0.1993  0.3589  0.0144  -5.8183   0.0000   0.0000   0.0000  -0.4797
 -11.830  -0.3151   0.01388   0.00787  -0.1993  0.3588  0.0144  -5.8130   0.0000   0.0000   0.0000  -0.4814
 -11.820  -0.3143   0.01387   0.00786  -0.1993  0.3588  0.0144  -5.8076   0.0000   0.0000   0.0000  -0.4830
 -11.810  -0.3136   0.01386   0.00785  -0.1992  0.3588  0.0144  -5.8022   0.0000   0.0000   0.0000  -0.4846
 -11.800  -0.3128   0.01385   0.00784  -0.1992  0.3588  0.0144  -5.7969   0.0000   0.0000   0.0000  -0.4862
 -11.790  -0.3120   0.01384   0.00783  -0.1991  0.3588  0.0144  -5.7915   0.0000   0.0000   0.0000  -0.4879
 -11.780  -0.3112   0.01383   0.00782  -0.1991  0.3588  0.0144  -5.7861   0.0000   0.0000   0.0000  -0.4896
 -11.770  -0.3103   0.01382   0.00781  -0.1990  0.3588  0.0144  -5.7808   0.0000   0.0000   0.0000  -0.4912
 -11.760  -0.3095   0.01381   0.00780  -0.1990  0.3587  0.0144  -5.7754   0.0000   0.0000   0.0000  -0.4929
 -11.750  -0.3087   0.01380   0.00779  -0.1990  0.3587  0.0144  -5.7700   0.0000   0.0000   0.0000  -0.4946
 -11.740  -0.3079   0.01379   0.00778  -0.1989  0.3587  0.0144  -5.7647   0.0000   0.0000   0.0000  -0.4964
 -11.730  -0.3071   0.01378   0.00777  -0.1989  0.3587  0.0144  -5.7593   0.0000   0.0000   0.0000  -0.4981
 -11.720  -0.3063   0.01377   0.00776  -0.1988  0.3587  0.0144  -5.7539   0.0000   0.0000   0.0000  -0.4998
 -11.710  -0.3055   0.01376   0.00775  -0.1988  0.3587  0.0144  -5.7485   0.0000   0.0000   0.0000  -0.5016
 -11.700  -0.3047   0.01375   0.00774  -0.1988  0.3586  0.0144  -5.7431   0.0000   0.0000   0.0000  -0.5033
 -11.690  -0.3039   0.01374   0.00773  -0.1987  0.3586  0.0144  -5.7377   0.0000   0.0000   0.0000  -0.5051
 -11.680  -0.3031   0.01373   0.00772  -0.1987  0.3586  0.0144  -5.7323   0.0000   0.0000   0.0000  -0.5069
 -11.670  -0.3023   0.01372   0.00771  -0.1986  0.3586  0.0144  -5.7270   0.0000   0.0000   0.0000  -0.5087
 -11.660  -0.3014   0.01371   0.00770  -0.1986  0.3586  0.0144  -5.7216   0.0000   0.0000   0.0000  -0.5105
 -11.650  -0.3006   0.01370   0.00769  -0.1986  0.3586  0.0144  -5.7162   0.0000   0.0000   0.0000  -0.5123
 -11.640  -0.2998   0.01369   0.00768  -0.1985  0.3585  0.0144  -5.7108   0.0000   0.0000   0.0000  -0.5142
 -11.630  -0.2990   0.01368   0.00767  -0.1985  0.3585  0.0144  -5.7054   0.0000   0.0000   0.0000  -0.5160
 -11.620  -0.2982   0.01367   0.00766  -0.1984  0.3585  0.0144  -5.7000   0.0000   0.0000   0.0000  -0.5179
 -11.610  -0.2974   0.01366   0.00765  -0.1984  0.3585  0.0144  -5.6946   0.0000   0.0000   0.0000  -0.5198
 -11.600  -0.2965   0.01365   0.00764  -0.1984  0.3585  0.0144  -5.6892   0.0000   0.0000   0.0000  -0.5216
 -11.590  -0.2957   0.01364   0.00763  -0.1983  0.3585  0.0144  -5.6838   0.0000   0.0000   0.0000  -0.5235
 -11.580  -0.2949   0.01363   0.00762  -0.1983  0.3585  0.0144  -5.6784   0.0000   0.0000   0.0000  -0.5255
 -11.570  -0.2941   0.01362   0.00761  -0.1982  0.3584  0.0144  -5.6730   0.0000   0.0000   0.0000  -0.5274
 -11.560  -0.2932   0.01361   0.00760  -0.1982  0.3584  0.0144  -5.6676   0.0000   0.0000   0.0000  -0.5293
 -11.550  -0.2924   0.01360   0.00759  -0.1982  0.3584  0.0144  -5.6622   0.0000   0.0000   0.0000  -0.5313
 -11.540  -0.2916   0.01360   0.00758  -0.1981  0.3584  0.0144  -5.6568   0.0000   0.0000   0.0000  -0.5333
 -11.530  -0.2908   0.01359   0.00757  -0.1981  0.3584  0.0144  -5.6514   0.0000   0.0000   0.0000  -0.5352
 -11.520  -0.2899   0.01358   0.00756  -0.1980  0.3584  0.0144  -5.6460   0.0000   0.0000   0.0000  -0.5372
 -11.510  -0.2891   0.01357   0.00755  -0.1980  0.3583  0.0144  -5.6405   0.0000   0.0000   0.0000  -0.5393
 -11.500  -0.2883   0.01356   0.00754  -0.1980  0.3583  0.0144  -5.6351   0.0000   0.0000   0.0000  -0.5413
 -11.490  -0.2875   0.01355   0.00753  -0.1979  0.3583  0.0144  -5.6297   0.0000   0.0000   0.0000  -0.5433
 -11.480  -0.2866   0.01354   0.00752  -0.1979  0.3583  0.0144  -5.6243   0.0000   0.0000   0.0000  -0.5454
 -11.470  -0.2858   0.01353   0.00751  -0.1978  0.3583  0.0144  -5.6189   0.0000   0.0000   0.0000  -0.5474
 -11.460  -0.2850   0.01352   0.00750  -0.1978  0.3583  0.0144  -5.6135   0.0000   0.0000   0.0000  -0.5495
 -11.450  -0.2841   0.01351   0.00749  -0.1978  0.3582  0.0144  -5.6081   0.0000   0.0000   0.0000  -0.5516
 -11.440  -0.2833   0.01350   0.00748  -0.1977  0.3582  0.0144  -5.6027   0.0000   0.0000   0.0000  -0.5537
 -11.430  -0.2825   0.01349   0.00747  -0.1977  0.3582  0.0144  -5.5972   0.0000   0.0000   0.0000  -0.5559
 -11.420  -0.2816   0.01348   0.00746  -0.1976  0.3582  0.0144  -5.5918   0.0000   0.0000   0.0000  -0.5580
 -11.410  -0.2808   0.01347   0.00745  -0.1976  0.3582  0.0144  -5.5864   0.0000   0.0000   0.0000  -0.5602
 -11.400  -0.2799   0.01346   0.00744  -0.1976  0.3582  0.0144  -5.5810   0.0000   0.0000   0.0000  -0.5623
 -11.390  -0.2791   0.01346   0.00743  -0.1975  0.3582  0.0145  -5.5756   0.0000   0.0000   0.0000  -0.5645
 -11.380  -0.2783   0.01345   0.00742  -0.1975  0.3581  0.0145  -5.5702   0.0000   0.0000   0.0000  -0.5667
 -11.370  -0.2774   0.01344   0.00741  -0.1975  0.3581  0.0145  -5.5647   0.0000   0.0000   0.0000  -0.5689
 -11.360  -0.2766   0.01343   0.00740  -0.1974  0.3581  0.0145  -5.5593   0.0000   0.0000   0.0000  -0.5712
 -11.350  -0.2757   0.01342   0.00739  -0.1974  0.3581  0.0145  -5.5539   0.0000   0.0000   0.0000  -0.5734
 -11.340  -0.2749   0.01341   0.00738  -0.1973  0.3581  0.0145  -5.5485   0.0000   0.0000   0.0000  -0.5757
 -11.330  -0.2741   0.01340   0.00738  -0.1973  0.3580  0.0145  -5.5431   0.0000   0.0000   0.0000  -0.5780
 -11.320  -0.2732   0.01339   0.00737  -0.1973  0.3580  0.0145  -5.5377   0.0000   0.0000   0.0000  -0.5802
 -11.310  -0.2724   0.01338   0.00736  -0.1972  0.3580  0.0145  -5.5322   0.0000   0.0000   0.0000  -0.5826
 -11.300  -0.2715   0.01337   0.00735  -0.1972  0.3580  0.0145  -5.5268   0.0000   0.0000   0.0000  -0.5849
 -11.290  -0.2707   0.01336   0.00734  -0.1971  0.3580  0.0145  -5.5214   0.0000   0.0000   0.0000  -0.5872
 -11.280  -0.2699   0.01336   0.00733  -0.1971  0.3579  0.0145  -5.5160   0.0000   0.0000   0.0000  -0.5896
 -11.270  -0.2690   0.01335   0.00732  -0.1971  0.3579  0.0145  -5.5106   0.0000   0.0000   0.0000  -0.5919
 -11.260  -0.2682   0.01334   0.00731  -0.1970  0.3579  0.0145  -5.5052   0.0000   0.0000   0.0000  -0.5943
 -11.250  -0.2673   0.01333   0.00730  -0.1970  0.3579  0.0145  -5.4998   0.0000   0.0000   0.0000  -0.5967
 -11.240  -0.2665   0.01332   0.00729  -0.1969  0.3578  0.0145  -5.4944   0.0000   0.0000   0.0000  -0.5991
 -11.230  -0.2656   0.01331   0.00728  -0.1969  0.3578  0.0145  -5.4889   0.0000   0.0000   0.0000  -0.6016
 -11.220  -0.2648   0.01330   0.00727  -0.1969  0.3578  0.0145  -5.4835   0.0000   0.0000   0.0000  -0.6040
 -11.210  -0.2640   0.01329   0.00726  -0.1968  0.3578  0.0145  -5.4781   0.0000   0.0000   0.0000  -0.6065
 -11.200  -0.2631   0.01329   0.00726  -0.1968  0.3577  0.0145  -5.4727   0.0000   0.0000   0.0000  -0.6090
 -11.190  -0.2623   0.01328   0.00725  -0.1967  0.3577  0.0145  -5.4673   0.0000   0.0000   0.0000  -0.6115
 -11.180  -0.2614   0.01327   0.00724  -0.1967  0.3577  0.0145  -5.4619   0.0000   0.0000   0.0000  -0.6140
 -11.170  -0.2606   0.01326   0.00723  -0.1967  0.3576  0.0145  -5.4565   0.0000   0.0000   0.0000  -0.6165
 -11.160  -0.2597   0.01325   0.00722  -0.1966  0.3576  0.0145  -5.4511   0.0000   0.0000   0.0000  -0.6191
 -11.150  -0.2589   0.01324   0.00721  -0.1966  0.3576  0.0145  -5.4457   0.0000   0.0000   0.0000  -0.6217
 -11.140  -0.2580   0.01323   0.00720  -0.1965  0.3576  0.0145  -5.4403   0.0000   0.0000   0.0000  -0.6242
 -11.130  -0.2572   0.01322   0.00719  -0.1965  0.3575  0.0145  -5.4349   0.0000   0.0000   0.0000  -0.6269
 -11.120  -0.2563   0.01322   0.00718  -0.1965  0.3575  0.0145  -5.4295   0.0000   0.0000   0.0000  -0.6295
 -11.110  -0.2555   0.01321   0.00717  -0.1964  0.3575  0.0145  -5.4241   0.0000   0.0000   0.0000  -0.6321
 -11.100  -0.2546   0.01320   0.00716  -0.1964  0.3574  0.0145  -5.4187   0.0000   0.0000   0.0000  -0.6348
 -11.090  -0.2538   0.01319   0.00716  -0.1964  0.3574  0.0145  -5.4133   0.0000   0.0000   0.0000  -0.6375
 -11.080  -0.2529   0.01318   0.00715  -0.1963  0.3574  0.0145  -5.4079   0.0000   0.0000   0.0000  -0.6402
 -11.070  -0.2521   0.01317   0.00714  -0.1963  0.3573  0.0145  -5.4025   0.0000   0.0000   0.0000  -0.6429
 -11.060  -0.2512   0.01317   0.00713  -0.1962  0.3573  0.0145  -5.3971   0.0000   0.0000   0.0000  -0.6456
 -11.050  -0.2504   0.01316   0.00712  -0.1962  0.3573  0.0145  -5.3917   0.0000   0.0000   0.0000  -0.6484
 -11.040  -0.2495   0.01315   0.00711  -0.1962  0.3572  0.0145  -5.3863   0.0000   0.0000   0.0000  -0.6512
 -11.030  -0.2487   0.01314   0.00710  -0.1961  0.3572  0.0145  -5.3809   0.0000   0.0000   0.0000  -0.6540
 -11.020  -0.2478   0.01313   0.00709  -0.1961  0.3572  0.0145  -5.3755   0.0000   0.0000   0.0000  -0.6568
 -11.010  -0.2470   0.01312   0.00709  -0.1960  0.3571  0.0145  -5.3701   0.0000   0.0000   0.0000  -0.6596
 -11.000  -0.2461   0.01312   0.00708  -0.1960  0.3571  0.0145  -5.3647   0.0000   0.0000   0.0000  -0.6625
 -10.990  -0.2453   0.01311   0.00707  -0.1960  0.3570  0.0145  -5.3594   0.0000   0.0000   0.0000  -0.6653
 -10.980  -0.2444   0.01310   0.00706  -0.1959  0.3570  0.0145  -5.3540   0.0000   0.0000   0.0000  -0.6682
 -10.970  -0.2436   0.01309   0.00705  -0.1959  0.3569  0.0145  -5.3486   0.0000   0.0000   0.0000  -0.6711
 -10.960  -0.2428   0.01308   0.00704  -0.1958  0.3569  0.0145  -5.3432   0.0000   0.0000   0.0000  -0.6740
 -10.950  -0.2419   0.01307   0.00703  -0.1958  0.3568  0.0145  -5.3379   0.0000   0.0000   0.0000  -0.6769
 -10.940  -0.2411   0.01307   0.00703  -0.1957  0.3567  0.0145  -5.3326   0.0000   0.0000   0.0000  -0.6798
 -10.930  -0.2402   0.01306   0.00702  -0.1957  0.3567  0.0145  -5.3272   0.0000   0.0000   0.0000  -0.6828
 -10.920  -0.2394   0.01305   0.00701  -0.1957  0.3566  0.0145  -5.3218   0.0000   0.0000   0.0000  -0.6858
 -10.910  -0.2385   0.01304   0.00700  -0.1956  0.3566  0.0145  -5.3164   0.0000   0.0000   0.0000  -0.6889
 -10.900  -0.2377   0.01303   0.00699  -0.1956  0.3565  0.0145  -5.3111   0.0000   0.0000   0.0000  -0.6920
 -10.890  -0.2368   0.01303   0.00698  -0.1955  0.3565  0.0145  -5.3057   0.0000   0.0000   0.0000  -0.6951
 -10.880  -0.2360   0.01302   0.00697  -0.1955  0.3564  0.0145  -5.3003   0.0000   0.0000   0.0000  -0.6982
 -10.870  -0.2351   0.01301   0.00697  -0.1955  0.3564  0.0145  -5.2949   0.0000   0.0000   0.0000  -0.7013
 -10.860  -0.2343   0.01300   0.00696  -0.1954  0.3564  0.0145  -5.2895   0.0000   0.0000   0.0000  -0.7045
 -10.850  -0.2334   0.01299   0.00695  -0.1954  0.3563  0.0145  -5.2842   0.0000   0.0000   0.0000  -0.7077
 -10.840  -0.2325   0.01299   0.00694  -0.1953  0.3563  0.0145  -5.2788   0.0000   0.0000   0.0000  -0.7109
 -10.830  -0.2317   0.01298   0.00693  -0.1953  0.3562  0.0146  -5.2735   0.0000   0.0000   0.0000  -0.7141
 -10.820  -0.2309   0.01297   0.00692  -0.1953  0.3562  0.0146  -5.2681   0.0000   0.0000   0.0000  -0.7173
 -10.810  -0.2300   0.01296   0.00692  -0.1952  0.3562  0.0146  -5.2628   0.0000   0.0000   0.0000  -0.7204
 -10.800  -0.2292   0.01295   0.00691  -0.1952  0.3561  0.0146  -5.2576   0.0000   0.0000   0.0000  -0.7236
 -10.790  -0.2284   0.01295   0.00690  -0.1951  0.3561  0.0146  -5.2523   0.0000   0.0000   0.0000  -0.7267
 -10.780  -0.2276   0.01294   0.00689  -0.1951  0.3560  0.0146  -5.2471   0.0000   0.0000   0.0000  -0.7298
 -10.770  -0.2268   0.01293   0.00688  -0.1950  0.3560  0.0146  -5.2419   0.0000   0.0000   0.0000  -0.7328
 -10.760  -0.2260   0.01292   0.00687  -0.1950  0.3559  0.0146  -5.2367   0.0000   0.0000   0.0000  -0.7359
 -10.750  -0.2252   0.01291   0.00686  -0.1949  0.3559  0.0146  -5.2316   0.0000   0.0000   0.0000  -0.7389
 -10.740  -0.2245   0.01290   0.00686  -0.1948  0.3559  0.0146  -5.2265   0.0000   0.0000   0.0000  -0.7419
 -10.730  -0.2237   0.01290   0.00685  -0.1948  0.3558  0.0146  -5.2214   0.0000   0.0000   0.0000  -0.7448
 -10.720  -0.2230   0.01289   0.00684  -0.1947  0.3558  0.0146  -5.2164   0.0000   0.0000   0.0000  -0.7477
 -10.710  -0.2222   0.01288   0.00683  -0.1947  0.3557  0.0146  -5.2113   0.0000   0.0000   0.0000  -0.7506
 -10.700  -0.2215   0.01287   0.00682  -0.1946  0.3557  0.0146  -5.2063   0.0000   0.0000   0.0000  -0.7534
 -10.690  -0.2208   0.01286   0.00681  -0.1945  0.3557  0.0146  -5.2014   0.0000   0.0000   0.0000  -0.7562
 -10.680  -0.2201   0.01285   0.00680  -0.1945  0.3556  0.0146  -5.1964   0.0000   0.0000   0.0000  -0.7590
 -10.670  -0.2194   0.01285   0.00680  -0.1944  0.3556  0.0146  -5.1915   0.0000   0.0000   0.0000  -0.7617
 -10.660  -0.2187   0.01284   0.00679  -0.1943  0.3555  0.0146  -5.1866   0.0000   0.0000   0.0000  -0.7644
 -10.650  -0.2180   0.01283   0.00678  -0.1942  0.3555  0.0146  -5.1818   0.0000   0.0000   0.0000  -0.7671
 -10.640  -0.2174   0.01282   0.00677  -0.1942  0.3554  0.0146  -5.1770   0.0000   0.0000   0.0000  -0.7697
 -10.630  -0.2167   0.01281   0.00676  -0.1941  0.3554  0.0146  -5.1721   0.0000   0.0000   0.0000  -0.7724
 -10.620  -0.2161   0.01280   0.00675  -0.1940  0.3554  0.0146  -5.1674   0.0000   0.0000   0.0000  -0.7749
 -10.610  -0.2154   0.01280   0.00674  -0.1939  0.3553  0.0146  -5.1626   0.0000   0.0000   0.0000  -0.7775
 -10.600  -0.2148   0.01279   0.00673  -0.1939  0.3553  0.0146  -5.1578   0.0000   0.0000   0.0000  -0.7801
 -10.590  -0.2141   0.01278   0.00673  -0.1938  0.3553  0.0146  -5.1531   0.0000   0.0000   0.0000  -0.7826
 -10.580  -0.2135   0.01277   0.00672  -0.1937  0.3552  0.0146  -5.1483   0.0000   0.0000   0.0000  -0.7852
 -10.570  -0.2129   0.01276   0.00671  -0.1936  0.3552  0.0146  -5.1436   0.0000   0.0000   0.0000  -0.7877
 -10.560  -0.2122   0.01275   0.00670  -0.1935  0.3551  0.0146  -5.1389   0.0000   0.0000   0.0000  -0.7903
 -10.550  -0.2116   0.01274   0.00669  -0.1934  0.3551  0.0146  -5.1341   0.0000   0.0000   0.0000  -0.7929
 -10.540  -0.2109   0.01274   0.00668  -0.1934  0.3551  0.0146  -5.1294   0.0000   0.0000   0.0000  -0.7956
 -10.530  -0.2103   0.01273   0.00667  -0.1933  0.3551  0.0146  -5.1246   0.0000   0.0000   0.0000  -0.7982
 -10.520  -0.2097   0.01272   0.00666  -0.1932  0.3550  0.0146  -5.1199   0.0000   0.0000   0.0000  -0.8009
 -10.510  -0.2090   0.01271   0.00665  -0.1931  0.3550  0.0146  -5.1152   0.0000   0.0000   0.0000  -0.8036
 -10.500  -0.2084   0.01270   0.00664  -0.1930  0.3550  0.0146  -5.1104   0.0000   0.0000   0.0000  -0.8063
 -10.490  -0.2077   0.01269   0.00664  -0.1929  0.3550  0.0146  -5.1056   0.0000   0.0000   0.0000  -0.8091
 -10.480  -0.2071   0.01268   0.00663  -0.1929  0.3549  0.0146  -5.1009   0.0000   0.0000   0.0000  -0.8119
 -10.470  -0.2064   0.01268   0.00662  -0.1928  0.3549  0.0146  -5.0961   0.0000   0.0000   0.0000  -0.8147
 -10.460  -0.2057   0.01267   0.00661  -0.1927  0.3549  0.0146  -5.0913   0.0000   0.0000   0.0000  -0.8176
 -10.450  -0.2051   0.01266   0.00660  -0.1926  0.3549  0.0146  -5.0865   0.0000   0.0000   0.0000  -0.8206
 -10.440  -0.2044   0.01265   0.00659  -0.1926  0.3548  0.0146  -5.0817   0.0000   0.0000   0.0000  -0.8236
 -10.430  -0.2037   0.01264   0.00658  -0.1925  0.3548  0.0146  -5.0768   0.0000   0.0000   0.0000  -0.8266
 -10.420  -0.2030   0.01263   0.00658  -0.1924  0.3548  0.0146  -5.0720   0.0000   0.0000   0.0000  -0.8297
 -10.410  -0.2024   0.01263   0.00657  -0.1923  0.3548  0.0146  -5.0672   0.0000   0.0000   0.0000  -0.8329
 -10.400  -0.2017   0.01262   0.00656  -0.1923  0.3547  0.0146  -5.0623   0.0000   0.0000   0.0000  -0.8361
 -10.390  -0.2010   0.01261   0.00655  -0.1922  0.3547  0.0146  -5.0574   0.0000   0.0000   0.0000  -0.8393
 -10.380  -0.2003   0.01260   0.00654  -0.1921  0.3547  0.0146  -5.0525   0.0000   0.0000   0.0000  -0.8426
 -10.370  -0.1996   0.01259   0.00653  -0.1920  0.3547  0.0146  -5.0476   0.0000   0.0000   0.0000  -0.8460
 -10.360  -0.1988   0.01258   0.00652  -0.1920  0.3546  0.0146  -5.0427   0.0000   0.0000   0.0000  -0.8494
 -10.350  -0.1981   0.01258   0.00652  -0.1919  0.3546  0.0146  -5.0378   0.0000   0.0000   0.0000  -0.8529
 -10.340  -0.1974   0.01257   0.00651  -0.1918  0.3546  0.0146  -5.0328   0.0000   0.0000   0.0000  -0.8565
 -10.330  -0.1967   0.01256   0.00650  -0.1918  0.3545  0.0146  -5.0279   0.0000   0.0000   0.0000  -0.8601
 -10.320  -0.1959   0.01255   0.00649  -0.1917  0.3545  0.0146  -5.0229   0.0000   0.0000   0.0000  -0.8637
 -10.310  -0.1952   0.01254   0.00648  -0.1916  0.3545  0.0146  -5.0180   0.0000   0.0000   0.0000  -0.8674
 -10.300  -0.1945   0.01254   0.00647  -0.1916  0.3545  0.0146  -5.0130   0.0000   0.0000   0.0000  -0.8712
 -10.290  -0.1937   0.01253   0.00647  -0.1915  0.3544  0.0146  -5.0080   0.0000   0.0000   0.0000  -0.8750
 -10.280  -0.1930   0.01252   0.00646  -0.1914  0.3544  0.0146  -5.0030   0.0000   0.0000   0.0000  -0.8789
 -10.270  -0.1922   0.01251   0.00645  -0.1914  0.3544  0.0146  -4.9980   0.0000   0.0000   0.0000  -0.8829
 -10.260  -0.1915   0.01250   0.00644  -0.1913  0.3543  0.0146  -4.9930   0.0000   0.0000   0.0000  -0.8869
 -10.250  -0.1907   0.01250   0.00643  -0.1913  0.3543  0.0146  -4.9879   0.0000   0.0000   0.0000  -0.8909
 -10.240  -0.1899   0.01249   0.00642  -0.1912  0.3543  0.0146  -4.9829   0.0000   0.0000   0.0000  -0.8950
 -10.230  -0.1892   0.01248   0.00642  -0.1911  0.3542  0.0146  -4.9779   0.0000   0.0000   0.0000  -0.8992
 -10.220  -0.1884   0.01247   0.00641  -0.1911  0.3542  0.0146  -4.9728   0.0000   0.0000   0.0000  -0.9035
 -10.210  -0.1876   0.01246   0.00640  -0.1910  0.3542  0.0146  -4.9677   0.0000   0.0000   0.0000  -0.9078
 -10.200  -0.1868   0.01246   0.00639  -0.1910  0.3541  0.0146  -4.9627   0.0000   0.0000   0.0000  -0.9121
 -10.190  -0.1860   0.01245   0.00638  -0.1909  0.3541  0.0147  -4.9576   0.0000   0.0000   0.0000  -0.9166
 -10.180  -0.1853   0.01244   0.00638  -0.1908  0.3541  0.0147  -4.9525   0.0000   0.0000   0.0000  -0.9210
 -10.170  -0.1845   0.01243   0.00637  -0.1908  0.3541  0.0147  -4.9474   0.0000   0.0000   0.0000  -0.9256
 -10.160  -0.1837   0.01243   0.00636  -0.1907  0.3540  0.0147  -4.9423   0.0000   0.0000   0.0000  -0.9302
 -10.150  -0.1829   0.01242   0.00635  -0.1907  0.3540  0.0147  -4.9372   0.0000   0.0000   0.0000  -0.9349
 -10.140  -0.1821   0.01241   0.00634  -0.1906  0.3540  0.0147  -4.9321   0.0000   0.0000   0.0000  -0.9396
 -10.130  -0.1813   0.01240   0.00634  -0.1906  0.3539  0.0147  -4.9270   0.0000   0.0000   0.0000  -0.9444
 -10.120  -0.1805   0.01240   0.00633  -0.1905  0.3539  0.0147  -4.9219   0.0000   0.0000   0.0000  -0.9493
 -10.110  -0.1797   0.01239   0.00632  -0.1905  0.3539  0.0147  -4.9167   0.0000   0.0000   0.0000  -0.9542
 -10.100  -0.1789   0.01238   0.00631  -0.1904  0.3538  0.0147  -4.9116   0.0000   0.0000   0.0000  -0.9592
 -10.090  -0.1780   0.01237   0.00631  -0.1904  0.3538  0.0147  -4.9065   0.0000   0.0000   0.0000  -0.9643
 -10.080  -0.1772   0.01237   0.00630  -0.1903  0.3538  0.0147  -4.9013   0.0000   0.0000   0.0000  -0.9694
 -10.070  -0.1764   0.01236   0.00629  -0.1903  0.3537  0.0147  -4.8962   0.0000   0.0000   0.0000  -0.9746
 -10.060  -0.1756   0.01235   0.00628  -0.1902  0.3537  0.0147  -4.8910   0.0000   0.0000   0.0000  -0.9799
 -10.050  -0.1748   0.01234   0.00628  -0.1902  0.3537  0.0147  -4.8859   0.0000   0.0000   0.0000  -0.9852
 -10.040  -0.1739   0.01234   0.00627  -0.1901  0.3536  0.0147  -4.8807   0.0000   0.0000   0.0000  -0.9906
 -10.030  -0.1731   0.01233   0.00626  -0.1901  0.3536  0.0147  -4.8755   0.0000   0.0000   0.0000  -0.9961
 -10.020  -0.1723   0.01232   0.00625  -0.1900  0.3535  0.0147  -4.8704   0.0000   0.0000   0.0000  -1.0016
 -10.010  -0.1714   0.01231   0.00624  -0.1900  0.3535  0.0147  -4.8652   0.0000   0.0000   0.0000  -1.0072
 -10.000  -0.1706   0.01231   0.00624  -0.1899  0.3535  0.0147  -4.8600   0.0000   0.0000   0.0000  -1.0129
  -9.990  -0.1698   0.01230   0.00623  -0.1899  0.3534  0.0147  -4.8548   0.0000   0.0000   0.0000  -1.0187
  -9.980  -0.1689   0.01229   0.00622  -0.1898  0.3534  0.0147  -4.8496   0.0000   0.0000   0.0000  -1.0245
  -9.970  -0.1681   0.01228   0.00621  -0.1898  0.3534  0.0147  -4.8444   0.0000   0.0000   0.0000  -1.0304
  -9.960  -0.1673   0.01228   0.00621  -0.1897  0.3533  0.0147  -4.8392   0.0000   0.0000   0.0000  -1.0364
  -9.950  -0.1664   0.01227   0.00620  -0.1897  0.3533  0.0147  -4.8341   0.0000   0.0000   0.0000  -1.0425
  -9.940  -0.1656   0.01226   0.00619  -0.1896  0.3533  0.0147  -4.8289   0.0000   0.0000   0.0000  -1.0486
  -9.930  -0.1647   0.01226   0.00618  -0.1896  0.3532  0.0147  -4.8236   0.0000   0.0000   0.0000  -1.0549
  -9.920  -0.1639   0.01225   0.00618  -0.1895  0.3532  0.0147  -4.8184   0.0000   0.0000   0.0000  -1.0612
  -9.910  -0.1630   0.01224   0.00617  -0.1895  0.3532  0.0147  -4.8132   0.0000   0.0000   0.0000  -1.0676
  -9.900  -0.1622   0.01223   0.00616  -0.1894  0.3531  0.0147  -4.8080   0.0000   0.0000   0.0000  -1.0740
  -9.890  -0.1613   0.01223   0.00616  -0.1894  0.3531  0.0147  -4.8028   0.0000   0.0000   0.0000  -1.0806
  -9.880  -0.1604   0.01222   0.00615  -0.1894  0.3530  0.0147  -4.7976   0.0000   0.0000   0.0000  -1.0872
  -9.870  -0.1596   0.01221   0.00614  -0.1893  0.3530  0.0147  -4.7924   0.0000   0.0000   0.0000  -1.0940
  -9.860  -0.1587   0.01221   0.00613  -0.1893  0.3530  0.0147  -4.7871   0.0000   0.0000   0.0000  -1.1008
  -9.850  -0.1579   0.01220   0.00613  -0.1892  0.3529  0.0147  -4.7819   0.0000   0.0000   0.0000  -1.1077
  -9.840  -0.1570   0.01219   0.00612  -0.1892  0.3529  0.0147  -4.7767   0.0000   0.0000   0.0000  -1.1147
  -9.830  -0.1561   0.01219   0.00611  -0.1891  0.3528  0.0147  -4.7715   0.0000   0.0000   0.0000  -1.1218
  -9.820  -0.1553   0.01218   0.00610  -0.1891  0.3528  0.0147  -4.7662   0.0000   0.0000   0.0000  -1.1290
  -9.810  -0.1544   0.01217   0.00610  -0.1891  0.3528  0.0147  -4.7610   0.0000   0.0000   0.0000  -1.1362
  -9.800  -0.1535   0.01217   0.00609  -0.1890  0.3527  0.0147  -4.7558   0.0000   0.0000   0.0000  -1.1436
  -9.790  -0.1527   0.01216   0.00608  -0.1890  0.3527  0.0147  -4.7505   0.0000   0.0000   0.0000  -1.1511
  -9.780  -0.1518   0.01215   0.00608  -0.1889  0.3527  0.0147  -4.7453   0.0000   0.0000   0.0000  -1.1587
  -9.770  -0.1509   0.01214   0.00607  -0.1889  0.3526  0.0147  -4.7401   0.0000   0.0000   0.0000  -1.1664
  -9.760  -0.1500   0.01214   0.00606  -0.1888  0.3526  0.0147  -4.7348   0.0000   0.0000   0.0000  -1.1741
  -9.750  -0.1492   0.01213   0.00606  -0.1888  0.3525  0.0147  -4.7296   0.0000   0.0000   0.0000  -1.1820
  -9.740  -0.1483   0.01212   0.00605  -0.1888  0.3525  0.0147  -4.7243   0.0000   0.0000   0.0000  -1.1900
  -9.730  -0.1474   0.01212   0.00604  -0.1887  0.3525  0.0147  -4.7191   0.0000   0.0000   0.0000  -1.1981
  -9.720  -0.1465   0.01211   0.00603  -0.1887  0.3524  0.0147  -4.7138   0.0000   0.0000   0.0000  -1.2063
  -9.710  -0.1456   0.01210   0.00603  -0.1886  0.3524  0.0147  -4.7086   0.0000   0.0000   0.0000  -1.2147
  -9.700  -0.1448   0.01210   0.00602  -0.1886  0.3524  0.0147  -4.7033   0.0000   0.0000   0.0000  -1.2232
  -9.690  -0.1439   0.01209   0.00601  -0.1886  0.3523  0.0147  -4.6981   0.0000   0.0000   0.0000  -1.2318
  -9.680  -0.1430   0.01208   0.00601  -0.1885  0.3523  0.0147  -4.6928   0.0000   0.0000   0.0000  -1.2406
  -9.670  -0.1421   0.01208   0.00600  -0.1885  0.3523  0.0147  -4.6875   0.0000   0.0000   0.0000  -1.2495
  -9.660  -0.1412   0.01207   0.00599  -0.1884  0.3523  0.0147  -4.6822   0.0000   0.0000   0.0000  -1.2586
  -9.650  -0.1403   0.01206   0.00599  -0.1884  0.3523  0.0147  -4.6770   0.0000   0.0000   0.0000  -1.2677
  -9.640  -0.1394   0.01206   0.00598  -0.1884  0.3522  0.0147  -4.6717   0.0000   0.0000   0.0000  -1.2770
  -9.630  -0.1385   0.01205   0.00597  -0.1883  0.3522  0.0147  -4.6664   0.0000   0.0000   0.0000  -1.2865
  -9.620  -0.1376   0.01204   0.00596  -0.1883  0.3522  0.0147  -4.6611   0.0000   0.0000   0.0000  -1.2960
  -9.610  -0.1367   0.01204   0.00596  -0.1883  0.3522  0.0147  -4.6558   0.0000   0.0000   0.0000  -1.3058
  -9.600  -0.1358   0.01203   0.00595  -0.1882  0.3522  0.0147  -4.6505   0.0000   0.0000   0.0000  -1.3156
  -9.590  -0.1349   0.01202   0.00594  -0.1882  0.3522  0.0147  -4.6453   0.0000   0.0000   0.0000  -1.3256
  -9.580  -0.1340   0.01202   0.00594  -0.1881  0.3521  0.0147  -4.6400   0.0000   0.0000   0.0000  -1.3358
  -9.570  -0.1331   0.01201   0.00593  -0.1881  0.3521  0.0147  -4.6347   0.0000   0.0000   0.0000  -1.3461
  -9.560  -0.1322   0.01200   0.00592  -0.1881  0.3521  0.0147  -4.6294   0.0000   0.0000   0.0000  -1.3566
  -9.550  -0.1312   0.01200   0.00592  -0.1880  0.3521  0.0147  -4.6241   0.0000   0.0000   0.0000  -1.3672
  -9.540  -0.1303   0.01199   0.00591  -0.1880  0.3521  0.0147  -4.6188   0.0000   0.0000   0.0000  -1.3780
  -9.530  -0.1294   0.01198   0.00590  -0.1880  0.3521  0.0147  -4.6135   0.0000   0.0000   0.0000  -1.3889
  -9.520  -0.1285   0.01198   0.00590  -0.1879  0.3520  0.0148  -4.6083   0.0000   0.0000   0.0000  -1.4000
  -9.510  -0.1276   0.01197   0.00589  -0.1879  0.3520  0.0148  -4.6030   0.0000   0.0000   0.0000  -1.4113
  -9.500  -0.1267   0.01196   0.00588  -0.1879  0.3520  0.0148  -4.5977   0.0000   0.0000   0.0000  -1.4228
  -9.490  -0.1258   0.01196   0.00588  -0.1878  0.3520  0.0148  -4.5924   0.0000   0.0000   0.0000  -1.4344
  -9.480  -0.1249   0.01195   0.00587  -0.1878  0.3520  0.0148  -4.5871   0.0000   0.0000   0.0000  -1.4462
  -9.470  -0.1239   0.01194   0.00586  -0.1878  0.3520  0.0148  -4.5818   0.0000   0.0000   0.0000  -1.4582
  -9.460  -0.1230   0.01194   0.00586  -0.1877  0.3519  0.0148  -4.5765   0.0000   0.0000   0.0000  -1.4704
  -9.450  -0.1221   0.01193   0.00585  -0.1877  0.3519  0.0148  -4.5712   0.0000   0.0000   0.0000  -1.4828
  -9.440  -0.1212   0.01193   0.00584  -0.1877  0.3519  0.0148  -4.5659   0.0000   0.0000   0.0000  -1.4954
  -9.430  -0.1203   0.01192   0.00584  -0.1876  0.3519  0.0148  -4.5607   0.0000   0.0000   0.0000  -1.5082
  -9.420  -0.1194   0.01191   0.00583  -0.1876  0.3519  0.0148  -4.5554   0.0000   0.0000   0.0000  -1.5212
  -9.410  -0.1184   0.01191   0.00582  -0.1875  0.3518  0.0148  -4.5501   0.0000   0.0000   0.0000  -1.5344
  -9.400  -0.1175   0.01190   0.00582  -0.1875  0.3518  0.0148  -4.5448   0.0000   0.0000   0.0000  -1.5478
  -9.390  -0.1166   0.01189   0.00581  -0.1875  0.3518  0.0148  -4.5395   0.0000   0.0000   0.0000  -1.5614
  -9.380  -0.1157   0.01189   0.00580  -0.1874  0.3518  0.0148  -4.5342   0.0000   0.0000   0.0000  -1.5753
  -9.370  -0.1148   0.01188   0.00580  -0.1874  0.3518  0.0148  -4.5290   0.0000   0.0000   0.0000  -1.5893
  -9.360  -0.1139   0.01188   0.00579  -0.1874  0.3517  0.0148  -4.5237   0.0000   0.0000   0.0000  -1.6035
  -9.350  -0.1129   0.01187   0.00578  -0.1873  0.3517  0.0148  -4.5185   0.0000   0.0000   0.0000  -1.6179
  -9.340  -0.1120   0.01186   0.00578  -0.1873  0.3517  0.0148  -4.5132   0.0000   0.0000   0.0000  -1.6325
  -9.330  -0.1111   0.01186   0.00577  -0.1873  0.3516  0.0148  -4.5080   0.0000   0.0000   0.0000  -1.6473
  -9.320  -0.1102   0.01185   0.00577  -0.1872  0.3516  0.0148  -4.5027   0.0000   0.0000   0.0000  -1.6623
  -9.310  -0.1093   0.01184   0.00576  -0.1872  0.3516  0.0148  -4.4975   0.0000   0.0000   0.0000  -1.6775
  -9.300  -0.1084   0.01184   0.00575  -0.1872  0.3516  0.0148  -4.4923   0.0000   0.0000   0.0000  -1.6929
  -9.290  -0.1075   0.01183   0.00575  -0.1871  0.3515  0.0148  -4.4871   0.0000   0.0000   0.0000  -1.7085
  -9.280  -0.1066   0.01183   0.00574  -0.1871  0.3515  0.0148  -4.4819   0.0000   0.0000   0.0000  -1.7244
  -9.270  -0.1057   0.01182   0.00573  -0.1870  0.3515  0.0148  -4.4767   0.0000   0.0000   0.0000  -1.7405
  -9.260  -0.1048   0.01181   0.00573  -0.1870  0.3515  0.0148  -4.4715   0.0000   0.0000   0.0000  -1.7569
  -9.250  -0.1039   0.01181   0.00572  -0.1870  0.3514  0.0148  -4.4663   0.0000   0.0000   0.0000  -1.7735
  -9.240  -0.1030   0.01180   0.00572  -0.1869  0.3514  0.0148  -4.4611   0.0000   0.0000   0.0000  -1.7904
  -9.230  -0.1021   0.01180   0.00571  -0.1869  0.3514  0.0148  -4.4559   0.0000   0.0000   0.0000  -1.8076
  -9.220  -0.1012   0.01179   0.00570  -0.1868  0.3514  0.0148  -4.4507   0.0000   0.0000   0.0000  -1.8250
  -9.210  -0.1004   0.01178   0.00570  -0.1868  0.3514  0.0148  -4.4456   0.0000   0.0000   0.0000  -1.8428
  -9.200  -0.0995   0.01178   0.00569  -0.1868  0.3513  0.0148  -4.4404   0.0000   0.0000   0.0000  -1.8609
  -9.190  -0.0986   0.01177   0.00568  -0.1867  0.3513  0.0148  -4.4352   0.0000   0.0000   0.0000  -1.8793
  -9.180  -0.0977   0.01177   0.00568  -0.1867  0.3513  0.0148  -4.4301   0.0000   0.0000   0.0000  -1.8981
  -9.170  -0.0968   0.01176   0.00567  -0.1866  0.3513  0.0148  -4.4249   0.0000   0.0000   0.0000  -1.9172
  -9.160  -0.0959   0.01175   0.00567  -0.1866  0.3513  0.0148  -4.4197   0.0000   0.0000   0.0000  -1.9366
  -9.150  -0.0950   0.01175   0.00566  -0.1866  0.3513  0.0148  -4.4146   0.0000   0.0000   0.0000  -1.9564
  -9.140  -0.0941   0.01174   0.00565  -0.1865  0.3512  0.0148  -4.4094   0.0000   0.0000   0.0000  -1.9766
  -9.130  -0.0932   0.01174   0.00565  -0.1865  0.3512  0.0148  -4.4042   0.0000   0.0000   0.0000  -1.9971
  -9.120  -0.0923   0.01173   0.00564  -0.1864  0.3512  0.0148  -4.3991   0.0000   0.0000   0.0000  -2.0181
  -9.110  -0.0914   0.01172   0.00564  -0.1864  0.3512  0.0148  -4.3939   0.0000   0.0000   0.0000  -2.0395
  -9.100  -0.0905   0.01172   0.00563  -0.1864  0.3512  0.0148  -4.3888   0.0000   0.0000   0.0000  -2.0613
  -9.090  -0.0896   0.01171   0.00562  -0.1863  0.3512  0.0148  -4.3836   0.0000   0.0000   0.0000  -2.0836
  -9.080  -0.0887   0.01171   0.00562  -0.1863  0.3512  0.0148  -4.3785   0.0000   0.0000   0.0000  -2.1063
  -9.070  -0.0879   0.01170   0.00561  -0.1862  0.3512  0.0148  -4.3733   0.0000   0.0000   0.0000  -2.1295
  -9.060  -0.0870   0.01170   0.00561  -0.1862  0.3511  0.0148  -4.3682   0.0000   0.0000   0.0000  -2.1533
  -9.050  -0.0861   0.01169   0.00560  -0.1862  0.3511  0.0148  -4.3630   0.0000   0.0000   0.0000  -2.1775
  -9.040  -0.0852   0.01168   0.00559  -0.1861  0.3511  0.0148  -4.3579   0.0000   0.0000   0.0000  -2.2023
  -9.030  -0.0843   0.01168   0.00559  -0.1861  0.3511  0.0148  -4.3527   0.0000   0.0000   0.0000  -2.2276
  -9.020  -0.0834   0.01167   0.00558  -0.1861  0.3511  0.0148  -4.3476   0.0000   0.0000   0.0000  -2.2535
  -9.010  -0.0825   0.01167   0.00558  -0.1860  0.3511  0.0148  -4.3424   0.0000   0.0000   0.0000  -2.2799
  -9.000  -0.0816   0.01166   0.00557  -0.1860  0.3511  0.0148  -4.3372   0.0000   0.0000   0.0000  -2.3071
  -8.990  -0.0807   0.01165   0.00557  -0.1859  0.3510  0.0148  -4.3321   0.0000   0.0000   0.0000  -2.3348
  -8.980  -0.0798   0.01165   0.00556  -0.1859  0.3510  0.0148  -4.3269   0.0000   0.0000   0.0000  -2.3633
  -8.970  -0.0789   0.01164   0.00555  -0.1859  0.3510  0.0148  -4.3218   0.0000   0.0000   0.0000  -2.3924
  -8.960  -0.0779   0.01164   0.00555  -0.1858  0.3510  0.0148  -4.3166   0.0000   0.0000   0.0000  -2.4223
  -8.950  -0.0770   0.01163   0.00554  -0.1858  0.3510  0.0148  -4.3115   0.0000   0.0000   0.0000  -2.4529
  -8.940  -0.0761   0.01163   0.00554  -0.1857  0.3510  0.0148  -4.3063   0.0000   0.0000   0.0000  -2.4843
  -8.930  -0.0752   0.01162   0.00553  -0.1857  0.3510  0.0148  -4.3011   0.0000   0.0000   0.0000  -2.5165
  -8.920  -0.0743   0.01162   0.00553  -0.1857  0.3509  0.0148  -4.2960   0.0000   0.0000   0.0000  -2.5496
  -8.910  -0.0734   0.01161   0.00552  -0.1856  0.3509  0.0148  -4.2908   0.0000   0.0000   0.0000  -2.5835
  -8.900  -0.0725   0.01160   0.00551  -0.1856  0.3509  0.0148  -4.2856   0.0000   0.0000   0.0000  -2.6183
  -8.890  -0.0716   0.01160   0.00551  -0.1856  0.3509  0.0148  -4.2805   0.0000   0.0000   0.0000  -2.6541
  -8.880  -0.0706   0.01159   0.00550  -0.1855  0.3509  0.0148  -4.2753   0.0000   0.0000   0.0000  -2.6909
  -8.870  -0.0697   0.01159   0.00550  -0.1855  0.3509  0.0148  -4.2701   0.0000   0.0000   0.0000  -2.7287
  -8.860  -0.0688   0.01158   0.00549  -0.1855  0.3509  0.0148  -4.2650   0.0000   0.0000   0.0000  -2.7676
  -8.850  -0.0679   0.01158   0.00549  -0.1854  0.3508  0.0148  -4.2598   0.0000   0.0000   0.0000  -2.8076
  -8.840  -0.0670   0.01157   0.00548  -0.1854  0.3508  0.0149  -4.2546   0.0000   0.0000   0.0000  -2.8488
  -8.830  -0.0660   0.01157   0.00547  -0.1854  0.3508  0.0149  -4.2494   0.0000   0.0000   0.0000  -2.8912
  -8.820  -0.0651   0.01156   0.00547  -0.1853  0.3508  0.0149  -4.2443   0.0000   0.0000   0.0000  -2.9348
  -8.810  -0.0642   0.01156   0.00546  -0.1853  0.3508  0.0149  -4.2391   0.0000   0.0000   0.0000  -2.9798
  -8.800  -0.0633   0.01155   0.00546  -0.1853  0.3508  0.0149  -4.2339   0.0000   0.0000   0.0000  -3.0262
  -8.790  -0.0623   0.01154   0.00545  -0.1852  0.3508  0.0149  -4.2287   0.0000   0.0000   0.0000  -3.0740
  -8.780  -0.0614   0.01154   0.00545  -0.1852  0.3507  0.0149  -4.2235   0.0000   0.0000   0.0000  -3.1234
  -8.770  -0.0605   0.01153   0.00544  -0.1852  0.3507  0.0149  -4.2184   0.0000   0.0000   0.0000  -3.1743
  -8.760  -0.0595   0.01153   0.00544  -0.1851  0.3507  0.0149  -4.2132   0.0000   0.0000   0.0000  -3.2269
  -8.750  -0.0586   0.01152   0.00543  -0.1851  0.3507  0.0149  -4.2080   0.0000   0.0000   0.0000  -3.2812
  -8.740  -0.0577   0.01152   0.00542  -0.1851  0.3507  0.0149  -4.2028   0.0000   0.0000   0.0000  -3.3374
  -8.730  -0.0567   0.01151   0.00542  -0.1850  0.3507  0.0149  -4.1976   0.0000   0.0000   0.0000  -3.3955
  -8.720  -0.0558   0.01151   0.00541  -0.1850  0.3507  0.0149  -4.1924   0.0000   0.0000   0.0000  -3.4557
  -8.710  -0.0549   0.01150   0.00541  -0.1850  0.3506  0.0149  -4.1873   0.0000   0.0000   0.0000  -3.5179
  -8.700  -0.0539   0.01150   0.00540  -0.1849  0.3506  0.0149  -4.1821   0.0000   0.0000   0.0000  -3.5825
  -8.690  -0.0530   0.01149   0.00540  -0.1849  0.3506  0.0149  -4.1769   0.0000   0.0000   0.0000  -3.6494
  -8.680  -0.0520   0.01149   0.00539  -0.1849  0.3506  0.0149  -4.1717   0.0000   0.0000   0.0000  -3.7188
  -8.670  -0.0511   0.01148   0.00539  -0.1848  0.3506  0.0149  -4.1665   0.0000   0.0000   0.0000  -3.7908
  -8.660  -0.0502   0.01148   0.00538  -0.1848  0.3506  0.0149  -4.1613   0.0000   0.0000   0.0000  -3.8656
  -8.650  -0.0492   0.01147   0.00538  -0.1848  0.3506  0.0149  -4.1561   0.0000   0.0000   0.0000  -3.9434
  -8.640  -0.0483   0.01147   0.00537  -0.1847  0.3505  0.0149  -4.1509   0.0000   0.0000   0.0000  -4.0243
  -8.630  -0.0473   0.01146   0.00537  -0.1847  0.3505  0.0149  -4.1458   0.0000   0.0000   0.0000  -4.1086
  -8.620  -0.0464   0.01146   0.00536  -0.1847  0.3505  0.0149  -4.1406   0.0000   0.0000   0.0000  -4.1964
  -8.610  -0.0454   0.01145   0.00536  -0.1846  0.3505  0.0149  -4.1354   0.0000   0.0000   0.0000  -4.2879
  -8.600  -0.0445   0.01145   0.00535  -0.1846  0.3505  0.0149  -4.1302   0.0000   0.0000   0.0000  -4.3834
  -8.590  -0.0435   0.01144   0.00535  -0.1846  0.3505  0.0149  -4.1250   0.0000   0.0000   0.0000  -4.4833
  -8.580  -0.0426   0.01143   0.00534  -0.1846  0.3505  0.0149  -4.1198   0.0000   0.0000   0.0000  -4.5876
  -8.570  -0.0416   0.01143   0.00533  -0.1845  0.3504  0.0149  -4.1146   0.0000   0.0000   0.0000  -4.6969
  -8.560  -0.0407   0.01142   0.00533  -0.1845  0.3504  0.0149  -4.1094   0.0000   0.0000   0.0000  -4.8114
  -8.550  -0.0397   0.01142   0.00532  -0.1845  0.3504  0.0149  -4.1043   0.0000   0.0000   0.0000  -4.9314
  -8.540  -0.0388   0.01141   0.00532  -0.1844  0.3504  0.0149  -4.0991   0.0000   0.0000   0.0000  -5.0575
  -8.530  -0.0378   0.01141   0.00531  -0.1844  0.3504  0.0149  -4.0939   0.0000   0.0000   0.0000  -5.1901
  -8.520  -0.0368   0.01140   0.00531  -0.1844  0.3504  0.0149  -4.0887   0.0000   0.0000   0.0000  -5.3297
  -8.510  -0.0359   0.01140   0.00530  -0.1844  0.3504  0.0149  -4.0835   0.0000   0.0000   0.0000  -5.4769
  -8.500  -0.0349   0.01139   0.00530  -0.1843  0.3503  0.0149  -4.0783   0.0000   0.0000   0.0000  -5.6322
  -8.490  -0.0340   0.01139   0.00529  -0.1843  0.3503  0.0149  -4.0731   0.0000   0.0000   0.0000  -5.7965
  -8.480  -0.0330   0.01138   0.00529  -0.1843  0.3503  0.0149  -4.0679   0.0000   0.0000   0.0000  -5.9704
  -8.470  -0.0321   0.01138   0.00528  -0.1842  0.3503  0.0149  -4.0628   0.0000   0.0000   0.0000  -6.1549
  -8.460  -0.0311   0.01138   0.00528  -0.1842  0.3503  0.0149  -4.0576   0.0000   0.0000   0.0000  -6.3509
  -8.450  -0.0301   0.01137   0.00527  -0.1842  0.3503  0.0149  -4.0524   0.0000   0.0000   0.0000  -6.5596
  -8.440  -0.0292   0.01137   0.00527  -0.1842  0.3503  0.0149  -4.0472   0.0000   0.0000   0.0000  -6.7822
  -8.430  -0.0282   0.01136   0.00526  -0.1841  0.3502  0.0149  -4.0420   0.0000   0.0000   0.0000  -7.0202
  -8.420  -0.0272   0.01136   0.00526  -0.1841  0.3502  0.0149  -4.0368   0.0000   0.0000   0.0000  -7.2751
  -8.410  -0.0263   0.01135   0.00525  -0.1841  0.3502  0.0149  -4.0317   0.0000   0.0000   0.0000  -7.5490
  -8.400  -0.0253   0.01135   0.00525  -0.1840  0.3502  0.0149  -4.0265   0.0000   0.0000   0.0000  -7.8439
  -8.390  -0.0243   0.01134   0.00524  -0.1840  0.3502  0.0149  -4.0213   0.0000   0.0000   0.0000  -8.1624
  -8.380  -0.0234   0.01134   0.00524  -0.1840  0.3502  0.0149  -4.0161   0.0000   0.0000   0.0000  -8.5075
  -8.370  -0.0224   0.01133   0.00523  -0.1840  0.3502  0.0149  -4.0109   0.0000   0.0000   0.0000  -8.8825
  -8.360  -0.0214   0.01133   0.00523  -0.1839  0.3501  0.0149  -4.0058   0.0000   0.0000   0.0000  -9.2916
  -8.350  -0.0205   0.01132   0.00522  -0.1839  0.3501  0.0149  -4.0006   0.0000   0.0000   0.0000  -9.7395
  -8.340  -0.0195   0.01132   0.00522  -0.1839  0.3501  0.0149  -3.9954   0.0000   0.0000   0.0000  -10.2322
  -8.330  -0.0185   0.01131   0.00522  -0.1839  0.3501  0.0149  -3.9902   0.0000   0.0000   0.0000  -10.7767
  -8.320  -0.0176   0.01131   0.00521  -0.1838  0.3501  0.0149  -3.9851   0.0000   0.0000   0.0000  -11.3816
  -8.310  -0.0166   0.01130   0.00521  -0.1838  0.3501  0.0149  -3.9799   0.0000   0.0000   0.0000  -12.0575
  -8.300  -0.0156   0.01130   0.00520  -0.1838  0.3501  0.0149  -3.9747   0.0000   0.0000   0.0000  -12.8177
  -8.290  -0.0147   0.01129   0.00520  -0.1837  0.3501  0.0149  -3.9696   0.0000   0.0000   0.0000  -13.6789
  -8.280  -0.0137   0.01129   0.00519  -0.1837  0.3500  0.0149  -3.9644   0.0000   0.0000   0.0000  -14.6629
  -8.270  -0.0127   0.01128   0.00519  -0.1837  0.3500  0.0149  -3.9592   0.0000   0.0000   0.0000  -15.7977
  -8.260  -0.0117   0.01128   0.00518  -0.1837  0.3500  0.0149  -3.9541   0.0000   0.0000   0.0000  -17.1209
  -8.250  -0.0108   0.01128   0.00518  -0.1836  0.3500  0.0149  -3.9489   0.0000   0.0000   0.0000  -18.6838
  -8.240  -0.0098   0.01127   0.00517  -0.1836  0.3500  0.0149  -3.9437   0.0000   0.0000   0.0000  -20.5578
  -8.230  -0.0088   0.01127   0.00517  -0.1836  0.3500  0.0149  -3.9386   0.0000   0.0000   0.0000  -22.8462
  -8.220  -0.0079   0.01126   0.00516  -0.1836  0.3500  0.0149  -3.9334   0.0000   0.0000   0.0000  -25.7034
  -8.210  -0.0069   0.01126   0.00516  -0.1835  0.3499  0.0149  -3.9282   0.0000   0.0000   0.0000  -29.3716
  -8.200  -0.0059   0.01125   0.00515  -0.1835  0.3499  0.0149  -3.9231   0.0000   0.0000   0.0000  -34.2529
  -8.190  -0.0049   0.01125   0.00515  -0.1835  0.3499  0.0149  -3.9179   0.0000   0.0000   0.0000  -41.0686
  -8.180  -0.0040   0.01124   0.00514  -0.1835  0.3499  0.0149  -3.9128   0.0000   0.0000   0.0000  -51.2502
  -8.170  -0.0030   0.01124   0.00514  -0.1834  0.3499  0.0149  -3.9076   0.0000   0.0000   0.0000  -68.1157
  -8.160  -0.0020   0.01123   0.00514  -0.1834  0.3499  0.0149  -3.9024   0.0000   0.0000   0.0000  -101.4542
  -8.150  -0.0010   0.01123   0.00513  -0.1834  0.3499  0.0149  -3.8973   0.0000   0.0000   0.0000  -198.4358
  -8.140  -0.0000   0.01123   0.00513  -0.1834  0.3498  0.0150  -3.8921   0.0000   0.0000   0.0000  -4363.1064
  -8.130   0.0009   0.01122   0.00512  -0.1833  0.3498  0.0150  -3.8870   0.0000   0.0000   0.0000  218.6281
  -8.120   0.0019   0.01122   0.00512  -0.1833  0.3498  0.0150  -3.8818   0.0000   0.0000   0.0000  106.7228
  -8.110   0.0029   0.01121   0.00511  -0.1833  0.3498  0.0150  -3.8767   0.0000   0.0000   0.0000  70.6262
  -8.100   0.0039   0.01121   0.00511  -0.1833  0.3498  0.0150  -3.8715   0.0000   0.0000   0.0000  52.7958
  -8.090   0.0048   0.01120   0.00510  -0.1832  0.3498  0.0150  -3.8664   0.0000   0.0000   0.0000  42.1663
  -8.080   0.0058   0.01120   0.00510  -0.1832  0.3498  0.0150  -3.8613   0.0000   0.0000   0.0000  35.1085
  -8.070   0.0068   0.01119   0.00509  -0.1832  0.3497  0.0150  -3.8561   0.0000   0.0000   0.0000  30.0811
  -8.060   0.0078   0.01119   0.00509  -0.1832  0.3497  0.0150  -3.8510   0.0000   0.0000   0.0000  26.3182
  -8.050   0.0088   0.01119   0.00509  -0.1831  0.3497  0.0150  -3.8458   0.0000   0.0000   0.0000  23.3965
  -8.040   0.0097   0.01118   0.00508  -0.1831  0.3497  0.0150  -3.8407   0.0000   0.0000   0.0000  21.0654
  -8.030   0.0107   0.01118   0.00508  -0.1831  0.3497  0.0150  -3.8356   0.0000   0.0000   0.0000  19.1629
  -8.020   0.0117   0.01117   0.00507  -0.1831  0.3497  0.0150  -3.8305   0.0000   0.0000   0.0000  17.5808
  -8.010   0.0127   0.01117   0.00507  -0.1830  0.3497  0.0150  -3.8253   0.0000   0.0000   0.0000  16.2443
  -8.000   0.0136   0.01116   0.00506  -0.1830  0.3496  0.0150  -3.8202   0.0000   0.0000   0.0000  15.1005
  -7.990   0.0146   0.01116   0.00506  -0.1830  0.3496  0.0150  -3.8151   0.0000   0.0000   0.0000  14.1104
  -7.980   0.0156   0.01116   0.00506  -0.1830  0.3496  0.0150  -3.8100   0.0000   0.0000   0.0000  13.2449
  -7.970   0.0166   0.01115   0.00505  -0.1829  0.3496  0.0150  -3.8050   0.0000   0.0000   0.0000  12.4820
  -7.960   0.0175   0.01115   0.00505  -0.1829  0.3496  0.0150  -3.7999   0.0000   0.0000   0.0000  11.8044
  -7.950   0.0185   0.01114   0.00504  -0.1829  0.3496  0.0150  -3.7948   0.0000   0.0000   0.0000  11.1985
  -7.940   0.0195   0.01114   0.00504  -0.1828  0.3496  0.0150  -3.7897   0.0000   0.0000   0.0000  10.6535
  -7.930   0.0204   0.01114   0.00503  -0.1828  0.3496  0.0150  -3.7847   0.0000   0.0000   0.0000  10.1606
  -7.920   0.0214   0.01113   0.00503  -0.1828  0.3495  0.0150  -3.7796   0.0000   0.0000   0.0000   9.7127
  -7.910   0.0223   0.01113   0.00503  -0.1828  0.3495  0.0150  -3.7746   0.0000   0.0000   0.0000   9.3038
  -7.900   0.0233   0.01112   0.00502  -0.1827  0.3495  0.0150  -3.7695   0.0000   0.0000   0.0000   8.9291
  -7.890   0.0242   0.01112   0.00502  -0.1827  0.3495  0.0150  -3.7645   0.0000   0.0000   0.0000   8.5844
  -7.880   0.0252   0.01112   0.00501  -0.1827  0.3495  0.0150  -3.7594   0.0000   0.0000   0.0000   8.2661
  -7.870   0.0262   0.01111   0.00501  -0.1826  0.3495  0.0150  -3.7544   0.0000   0.0000   0.0000   7.9714
  -7.860   0.0271   0.01111   0.00501  -0.1826  0.3495  0.0150  -3.7494   0.0000   0.0000   0.0000   7.6977
  -7.850   0.0281   0.01110   0.00500  -0.1826  0.3494  0.0150  -3.7443   0.0000   0.0000   0.0000   7.4428
  -7.840   0.0290   0.01110   0.00500  -0.1825  0.3494  0.0150  -3.7393   0.0000   0.0000   0.0000   7.2048
  -7.830   0.0300   0.01110   0.00499  -0.1825  0.3494  0.0150  -3.7343   0.0000   0.0000   0.0000   6.9821
  -7.820   0.0309   0.01109   0.00499  -0.1825  0.3494  0.0150  -3.7293   0.0000   0.0000   0.0000   6.7732
  -7.810   0.0319   0.01109   0.00499  -0.1825  0.3494  0.0150  -3.7243   0.0000   0.0000   0.0000   6.5768
  -7.800   0.0328   0.01108   0.00498  -0.1824  0.3494  0.0150  -3.7193   0.0000   0.0000   0.0000   6.3919
  -7.790   0.0338   0.01108   0.00498  -0.1824  0.3494  0.0150  -3.7143   0.0000   0.0000   0.0000   6.2174
  -7.780   0.0347   0.01108   0.00497  -0.1824  0.3493  0.0150  -3.7093   0.0000   0.0000   0.0000   6.0525
  -7.770   0.0357   0.01107   0.00497  -0.1823  0.3493  0.0150  -3.7043   0.0000   0.0000   0.0000   5.8964
  -7.760   0.0366   0.01107   0.00497  -0.1823  0.3493  0.0150  -3.6993   0.0000   0.0000   0.0000   5.7483
  -7.750   0.0376   0.01106   0.00496  -0.1823  0.3493  0.0150  -3.6943   0.0000   0.0000   0.0000   5.6078
  -7.740   0.0385   0.01106   0.00496  -0.1822  0.3493  0.0150  -3.6893   0.0000   0.0000   0.0000   5.4741
  -7.730   0.0395   0.01106   0.00495  -0.1822  0.3493  0.0150  -3.6843   0.0000   0.0000   0.0000   5.3468
  -7.720   0.0404   0.01105   0.00495  -0.1822  0.3493  0.0150  -3.6793   0.0000   0.0000   0.0000   5.2255
  -7.710   0.0414   0.01105   0.00495  -0.1821  0.3493  0.0150  -3.6743   0.0000   0.0000   0.0000   5.1097
  -7.700   0.0423   0.01105   0.00494  -0.1821  0.3492  0.0150  -3.6694   0.0000   0.0000   0.0000   4.9991
  -7.690   0.0433   0.01104   0.00494  -0.1821  0.3492  0.0150  -3.6644   0.0000   0.0000   0.0000   4.8935
  -7.680   0.0442   0.01104   0.00494  -0.1821  0.3492  0.0150  -3.6594   0.0000   0.0000   0.0000   4.7923
  -7.670   0.0452   0.01103   0.00493  -0.1820  0.3492  0.0150  -3.6544   0.0000   0.0000   0.0000   4.6954
  -7.660   0.0461   0.01103   0.00493  -0.1820  0.3492  0.0150  -3.6494   0.0000   0.0000   0.0000   4.6024
  -7.650   0.0471   0.01103   0.00492  -0.1820  0.3492  0.0150  -3.6445   0.0000   0.0000   0.0000   4.5131
  -7.640   0.0480   0.01102   0.00492  -0.1819  0.3492  0.0150  -3.6395   0.0000   0.0000   0.0000   4.4272
  -7.630   0.0490   0.01102   0.00492  -0.1819  0.3491  0.0150  -3.6345   0.0000   0.0000   0.0000   4.3447
  -7.620   0.0499   0.01102   0.00491  -0.1819  0.3491  0.0150  -3.6295   0.0000   0.0000   0.0000   4.2652
  -7.610   0.0509   0.01101   0.00491  -0.1818  0.3491  0.0150  -3.6246   0.0000   0.0000   0.0000   4.1887
  -7.600   0.0518   0.01101   0.00491  -0.1818  0.3491  0.0150  -3.6196   0.0000   0.0000   0.0000   4.1149
  -7.590   0.0528   0.01101   0.00490  -0.1818  0.3491  0.0150  -3.6146   0.0000   0.0000   0.0000   4.0438
  -7.580   0.0538   0.01100   0.00490  -0.1818  0.3491  0.0150  -3.6096   0.0000   0.0000   0.0000   3.9751
  -7.570   0.0547   0.01100   0.00490  -0.1817  0.3491  0.0150  -3.6047   0.0000   0.0000   0.0000   3.9088
  -7.560   0.0557   0.01100   0.00489  -0.1817  0.3490  0.0150  -3.5997   0.0000   0.0000   0.0000   3.8447
  -7.550   0.0566   0.01099   0.00489  -0.1817  0.3490  0.0150  -3.5947   0.0000   0.0000   0.0000   3.7827
  -7.540   0.0576   0.01099   0.00488  -0.1816  0.3490  0.0150  -3.5897   0.0000   0.0000   0.0000   3.7227
  -7.530   0.0586   0.01098   0.00488  -0.1816  0.3490  0.0150  -3.5848   0.0000   0.0000   0.0000   3.6647
  -7.520   0.0595   0.01098   0.00488  -0.1816  0.3490  0.0150  -3.5798   0.0000   0.0000   0.0000   3.6085
  -7.510   0.0605   0.01098   0.00487  -0.1816  0.3490  0.0150  -3.5748   0.0000   0.0000   0.0000   3.5540
  -7.500   0.0614   0.01097   0.00487  -0.1815  0.3490  0.0150  -3.5699   0.0000   0.0000   0.0000   3.5012
  -7.490   0.0624   0.01097   0.00487  -0.1815  0.3490  0.0150  -3.5649   0.0000   0.0000   0.0000   3.4500
  -7.480   0.0634   0.01097   0.00486  -0.1815  0.3489  0.0150  -3.5599   0.0000   0.0000   0.0000   3.4004
  -7.470   0.0643   0.01096   0.00486  -0.1814  0.3489  0.0150  -3.5550   0.0000   0.0000   0.0000   3.3521
  -7.460   0.0653   0.01096   0.00486  -0.1814  0.3489  0.0150  -3.5500   0.0000   0.0000   0.0000   3.3053
  -7.450   0.0663   0.01096   0.00485  -0.1814  0.3489  0.0150  -3.5450   0.0000   0.0000   0.0000   3.2598
  -7.440   0.0672   0.01095   0.00485  -0.1814  0.3489  0.0150  -3.5400   0.0000   0.0000   0.0000   3.2156
  -7.430   0.0682   0.01095   0.00485  -0.1813  0.3489  0.0150  -3.5351   0.0000   0.0000   0.0000   3.1726
  -7.420   0.0692   0.01095   0.00484  -0.1813  0.3489  0.0151  -3.5301   0.0000   0.0000   0.0000   3.1307
  -7.410   0.0702   0.01094   0.00484  -0.1813  0.3488  0.0151  -3.5251   0.0000   0.0000   0.0000   3.0900
  -7.400   0.0711   0.01094   0.00484  -0.1813  0.3488  0.0151  -3.5202   0.0000   0.0000   0.0000   3.0504
  -7.390   0.0721   0.01094   0.00483  -0.1812  0.3488  0.0151  -3.5152   0.0000   0.0000   0.0000   3.0119
  -7.380   0.0731   0.01093   0.00483  -0.1812  0.3488  0.0151  -3.5103   0.0000   0.0000   0.0000   2.9743
  -7.370   0.0741   0.01093   0.00483  -0.1812  0.3488  0.0151  -3.5053   0.0000   0.0000   0.0000   2.9377
  -7.360   0.0750   0.01093   0.00482  -0.1811  0.3488  0.0151  -3.5003   0.0000   0.0000   0.0000   2.9020
  -7.350   0.0760   0.01092   0.00482  -0.1811  0.3488  0.0151  -3.4954   0.0000   0.0000   0.0000   2.8672
  -7.340   0.0770   0.01092   0.00482  -0.1811  0.3488  0.0151  -3.4904   0.0000   0.0000   0.0000   2.8333
  -7.330   0.0780   0.01092   0.00481  -0.1811  0.3487  0.0151  -3.4854   0.0000   0.0000   0.0000   2.8002
  -7.320   0.0789   0.01091   0.00481  -0.1810  0.3487  0.0151  -3.4805   0.0000   0.0000   0.0000   2.7679
  -7.310   0.0799   0.01091   0.00481  -0.1810  0.3487  0.0151  -3.4755   0.0000   0.0000   0.0000   2.7364
  -7.300   0.0809   0.01091   0.00480  -0.1810  0.3487  0.0151  -3.4706   0.0000   0.0000   0.0000   2.7056
  -7.290   0.0819   0.01090   0.00480  -0.1810  0.3487  0.0151  -3.4656   0.0000   0.0000   0.0000   2.6755
  -7.280   0.0829   0.01090   0.00480  -0.1809  0.3487  0.0151  -3.4607   0.0000   0.0000   0.0000   2.6462
  -7.270   0.0838   0.01090   0.00479  -0.1809  0.3487  0.0151  -3.4557   0.0000   0.0000   0.0000   2.6175
  -7.260   0.0848   0.01089   0.00479  -0.1809  0.3486  0.0151  -3.4507   0.0000   0.0000   0.0000   2.5894
  -7.250   0.0858   0.01089   0.00479  -0.1809  0.3486  0.0151  -3.4458   0.0000   0.0000   0.0000   2.5619
  -7.240   0.0868   0.01089   0.00478  -0.1808  0.3486  0.0151  -3.4408   0.0000   0.0000   0.0000   2.5351
  -7.230   0.0878   0.01089   0.00478  -0.1808  0.3486  0.0151  -3.4359   0.0000   0.0000   0.0000   2.5088
  -7.220   0.0888   0.01088   0.00478  -0.1808  0.3486  0.0151  -3.4309   0.0000   0.0000   0.0000   2.4831
  -7.210   0.0898   0.01088   0.00477  -0.1808  0.3486  0.0151  -3.4260   0.0000   0.0000   0.0000   2.4580
  -7.200   0.0907   0.01088   0.00477  -0.1807  0.3486  0.0151  -3.4210   0.0000   0.0000   0.0000   2.4333
  -7.190   0.0917   0.01087   0.00477  -0.1807  0.3486  0.0151  -3.4161   0.0000   0.0000   0.0000   2.4092
  -7.180   0.0927   0.01087   0.00477  -0.1807  0.3485  0.0151  -3.4111   0.0000   0.0000   0.0000   2.3856
  -7.170   0.0937   0.01087   0.00476  -0.1807  0.3485  0.0151  -3.4061   0.0000   0.0000   0.0000   2.3625
  -7.160   0.0947   0.01087   0.00476  -0.1807  0.3485  0.0151  -3.4012   0.0000   0.0000   0.0000   2.3398
  -7.150   0.0957   0.01086   0.00476  -0.1806  0.3485  0.0151  -3.3962   0.0000   0.0000   0.0000   2.3176
  -7.140   0.0967   0.01086   0.00475  -0.1806  0.3485  0.0151  -3.3913   0.0000   0.0000   0.0000   2.2959
  -7.130   0.0977   0.01086   0.00475  -0.1806  0.3485  0.0151  -3.3864   0.0000   0.0000   0.0000   2.2745
  -7.120   0.0987   0.01086   0.00475  -0.1806  0.3485  0.0151  -3.3814   0.0000   0.0000   0.0000   2.2536
  -7.110   0.0997   0.01085   0.00475  -0.1805  0.3484  0.0151  -3.3765   0.0000   0.0000   0.0000   2.2331
  -7.100   0.1007   0.01085   0.00474  -0.1805  0.3484  0.0151  -3.3715   0.0000   0.0000   0.0000   2.2130
  -7.090   0.1017   0.01085   0.00474  -0.1805  0.3484  0.0151  -3.3666   0.0000   0.0000   0.0000   2.1933
  -7.080   0.1027   0.01084   0.00474  -0.1805  0.3484  0.0151  -3.3616   0.0000   0.0000   0.0000   2.1740
  -7.070   0.1037   0.01084   0.00474  -0.1804  0.3484  0.0151  -3.3567   0.0000   0.0000   0.0000   2.1550
  -7.060   0.1046   0.01084   0.00473  -0.1804  0.3484  0.0151  -3.3517   0.0000   0.0000   0.0000   2.1363
  -7.050   0.1056   0.01084   0.00473  -0.1804  0.3484  0.0151  -3.3468   0.0000   0.0000   0.0000   2.1180
  -7.040   0.1066   0.01083   0.00473  -0.1804  0.3484  0.0151  -3.3419   0.0000   0.0000   0.0000   2.1001
  -7.030   0.1076   0.01083   0.00473  -0.1804  0.3483  0.0151  -3.3369   0.0000   0.0000   0.0000   2.0825
  -7.020   0.1086   0.01083   0.00472  -0.1803  0.3483  0.0151  -3.3320   0.0000   0.0000   0.0000   2.0652
  -7.010   0.1096   0.01083   0.00472  -0.1803  0.3483  0.0151  -3.3271   0.0000   0.0000   0.0000   2.0482
  -7.000   0.1106   0.01083   0.00472  -0.1803  0.3483  0.0151  -3.3221   0.0000   0.0000   0.0000   2.0315
  -6.990   0.1116   0.01082   0.00472  -0.1803  0.3483  0.0151  -3.3172   0.0000   0.0000   0.0000   2.0151
  -6.980   0.1126   0.01082   0.00471  -0.1802  0.3483  0.0151  -3.3123   0.0000   0.0000   0.0000   1.9989
  -6.970   0.1136   0.01082   0.00471  -0.1802  0.3483  0.0151  -3.3074   0.0000   0.0000   0.0000   1.9831
  -6.960   0.1146   0.01082   0.00471  -0.1802  0.3482  0.0151  -3.3024   0.0000   0.0000   0.0000   1.9675
  -6.950   0.1156   0.01081   0.00471  -0.1802  0.3482  0.0151  -3.2975   0.0000   0.0000   0.0000   1.9522
  -6.940   0.1166   0.01081   0.00470  -0.1802  0.3482  0.0151  -3.2926   0.0000   0.0000   0.0000   1.9372
  -6.930   0.1176   0.01081   0.00470  -0.1801  0.3482  0.0151  -3.2877   0.0000   0.0000   0.0000   1.9224
  -6.920   0.1186   0.01081   0.00470  -0.1801  0.3482  0.0151  -3.2828   0.0000   0.0000   0.0000   1.9078
  -6.910   0.1196   0.01080   0.00470  -0.1801  0.3482  0.0151  -3.2778   0.0000   0.0000   0.0000   1.8935
  -6.900   0.1206   0.01080   0.00469  -0.1801  0.3482  0.0151  -3.2729   0.0000   0.0000   0.0000   1.8794
  -6.890   0.1217   0.01080   0.00469  -0.1801  0.3482  0.0151  -3.2680   0.0000   0.0000   0.0000   1.8656
  -6.880   0.1227   0.01080   0.00469  -0.1800  0.3481  0.0151  -3.2631   0.0000   0.0000   0.0000   1.8520
  -6.870   0.1237   0.01080   0.00469  -0.1800  0.3481  0.0151  -3.2582   0.0000   0.0000   0.0000   1.8386
  -6.860   0.1247   0.01079   0.00469  -0.1800  0.3481  0.0151  -3.2533   0.0000   0.0000   0.0000   1.8254
  -6.850   0.1257   0.01079   0.00468  -0.1800  0.3481  0.0151  -3.2484   0.0000   0.0000   0.0000   1.8124
  -6.840   0.1267   0.01079   0.00468  -0.1800  0.3481  0.0151  -3.2435   0.0000   0.0000   0.0000   1.7996
  -6.830   0.1277   0.01079   0.00468  -0.1799  0.3481  0.0151  -3.2386   0.0000   0.0000   0.0000   1.7870
  -6.820   0.1287   0.01078   0.00468  -0.1799  0.3481  0.0151  -3.2337   0.0000   0.0000   0.0000   1.7747
  -6.810   0.1297   0.01078   0.00467  -0.1799  0.3480  0.0151  -3.2288   0.0000   0.0000   0.0000   1.7625
  -6.800   0.1307   0.01078   0.00467  -0.1799  0.3480  0.0151  -3.2239   0.0000   0.0000   0.0000   1.7504
  -6.790   0.1317   0.01078   0.00467  -0.1798  0.3480  0.0151  -3.2190   0.0000   0.0000   0.0000   1.7386
  -6.780   0.1327   0.01078   0.00467  -0.1798  0.3480  0.0151  -3.2141   0.0000   0.0000   0.0000   1.7270
  -6.770   0.1337   0.01077   0.00467  -0.1798  0.3480  0.0151  -3.2092   0.0000   0.0000   0.0000   1.7155
  -6.760   0.1347   0.01077   0.00466  -0.1798  0.3480  0.0151  -3.2043   0.0000   0.0000   0.0000   1.7042
  -6.750   0.1357   0.01077   0.00466  -0.1798  0.3480  0.0151  -3.1995   0.0000   0.0000   0.0000   1.6930
  -6.740   0.1367   0.01077   0.00466  -0.1797  0.3480  0.0151  -3.1946   0.0000   0.0000   0.0000   1.6821
  -6.730   0.1377   0.01077   0.00466  -0.1797  0.3479  0.0152  -3.1897   0.0000   0.0000   0.0000   1.6712
  -6.720   0.1387   0.01076   0.00466  -0.1797  0.3479  0.0152  -3.1848   0.0000   0.0000   0.0000   1.6606
  -6.710   0.1397   0.01076   0.00465  -0.1797  0.3479  0.0152  -3.1799   0.0000   0.0000   0.0000   1.6501
  -6.700   0.1407   0.01076   0.00465  -0.1797  0.3479  0.0152  -3.1751   0.0000   0.0000   0.0000   1.6397
  -6.690   0.1418   0.01076   0.00465  -0.1796  0.3479  0.0152  -3.1702   0.0000   0.0000   0.0000   1.6295
  -6.680   0.1428   0.01076   0.00465  -0.1796  0.3479  0.0152  -3.1653   0.0000   0.0000   0.0000   1.6194
  -6.670   0.1438   0.01075   0.00465  -0.1796  0.3479  0.0152  -3.1605   0.0000   0.0000   0.0000   1.6095
  -6.660   0.1448   0.01075   0.00464  -0.1796  0.3478  0.0152  -3.1556   0.0000   0.0000   0.0000   1.5997
  -6.650   0.1458   0.01075   0.00464  -0.1796  0.3478  0.0152  -3.1507   0.0000   0.0000   0.0000   1.5900
  -6.640   0.1468   0.01075   0.00464  -0.1795  0.3478  0.0152  -3.1459   0.0000   0.0000   0.0000   1.5805
  -6.630   0.1478   0.01075   0.00464  -0.1795  0.3478  0.0152  -3.1410   0.0000   0.0000   0.0000   1.5711
  -6.620   0.1488   0.01074   0.00464  -0.1795  0.3478  0.0152  -3.1362   0.0000   0.0000   0.0000   1.5618
  -6.610   0.1498   0.01074   0.00463  -0.1795  0.3478  0.0152  -3.1313   0.0000   0.0000   0.0000   1.5527
  -6.600   0.1508   0.01074   0.00463  -0.1795  0.3478  0.0152  -3.1265   0.0000   0.0000   0.0000   1.5437
  -6.590   0.1518   0.01074   0.00463  -0.1794  0.3478  0.0152  -3.1216   0.0000   0.0000   0.0000   1.5348
  -6.580   0.1528   0.01074   0.00463  -0.1794  0.3477  0.0152  -3.1168   0.0000   0.0000   0.0000   1.5261
  -6.570   0.1538   0.01074   0.00463  -0.1794  0.3477  0.0152  -3.1120   0.0000   0.0000   0.0000   1.5175
  -6.560   0.1548   0.01073   0.00462  -0.1794  0.3477  0.0152  -3.1072   0.0000   0.0000   0.0000   1.5090
  -6.550   0.1558   0.01073   0.00462  -0.1793  0.3477  0.0152  -3.1023   0.0000   0.0000   0.0000   1.5006
  -6.540   0.1568   0.01073   0.00462  -0.1793  0.3477  0.0152  -3.0975   0.0000   0.0000   0.0000   1.4924
  -6.530   0.1578   0.01073   0.00462  -0.1793  0.3477  0.0152  -3.0927   0.0000   0.0000   0.0000   1.4843
  -6.520   0.1588   0.01073   0.00462  -0.1793  0.3477  0.0152  -3.0880   0.0000   0.0000   0.0000   1.4762
  -6.510   0.1598   0.01072   0.00462  -0.1792  0.3477  0.0152  -3.0832   0.0000   0.0000   0.0000   1.4683
  -6.500   0.1607   0.01072   0.00461  -0.1792  0.3476  0.0152  -3.0784   0.0000   0.0000   0.0000   1.4605
  -6.490   0.1617   0.01072   0.00461  -0.1792  0.3476  0.0152  -3.0736   0.0000   0.0000   0.0000   1.4528
  -6.480   0.1627   0.01072   0.00461  -0.1792  0.3476  0.0152  -3.0688   0.0000   0.0000   0.0000   1.4452
  -6.470   0.1637   0.01072   0.00461  -0.1792  0.3476  0.0153  -3.0641   0.0000   0.0000   0.0000   1.4377
  -6.460   0.1647   0.01072   0.00461  -0.1791  0.3476  0.0153  -3.0593   0.0000   0.0000   0.0000   1.4303
  -6.450   0.1657   0.01071   0.00461  -0.1791  0.3476  0.0153  -3.0546   0.0000   0.0000   0.0000   1.4230
  -6.440   0.1666   0.01071   0.00460  -0.1791  0.3476  0.0153  -3.0498   0.0000   0.0000   0.0000   1.4158
  -6.430   0.1676   0.01071   0.00460  -0.1790  0.3475  0.0153  -3.0451   0.0000   0.0000   0.0000   1.4086
  -6.420   0.1686   0.01071   0.00460  -0.1790  0.3475  0.0153  -3.0403   0.0000   0.0000   0.0000   1.4016
  -6.410   0.1696   0.01071   0.00460  -0.1790  0.3475  0.0153  -3.0356   0.0000   0.0000   0.0000   1.3947
  -6.400   0.1705   0.01071   0.00460  -0.1790  0.3475  0.0153  -3.0308   0.0000   0.0000   0.0000   1.3878
  -6.390   0.1715   0.01071   0.00460  -0.1789  0.3475  0.0153  -3.0261   0.0000   0.0000   0.0000   1.3810
  -6.380   0.1725   0.01070   0.00460  -0.1789  0.3475  0.0153  -3.0214   0.0000   0.0000   0.0000   1.3743
  -6.370   0.1735   0.01070   0.00459  -0.1789  0.3475  0.0153  -3.0167   0.0000   0.0000   0.0000   1.3677
  -6.360   0.1744   0.01070   0.00459  -0.1789  0.3475  0.0153  -3.0120   0.0000   0.0000   0.0000   1.3611
  -6.350   0.1754   0.01070   0.00459  -0.1788  0.3474  0.0153  -3.0072   0.0000   0.0000   0.0000   1.3546
  -6.340   0.1764   0.01070   0.00459  -0.1788  0.3474  0.0153  -3.0025   0.0000   0.0000   0.0000   1.3482
  -6.330   0.1773   0.01070   0.00459  -0.1788  0.3474  0.0153  -2.9978   0.0000   0.0000   0.0000   1.3419
  -6.320   0.1783   0.01070   0.00459  -0.1788  0.3474  0.0153  -2.9931   0.0000   0.0000   0.0000   1.3356
  -6.310   0.1793   0.01069   0.00459  -0.1787  0.3474  0.0153  -2.9884   0.0000   0.0000   0.0000   1.3295
  -6.300   0.1803   0.01069   0.00458  -0.1787  0.3474  0.0153  -2.9837   0.0000   0.0000   0.0000   1.3233
  -6.290   0.1812   0.01069   0.00458  -0.1787  0.3474  0.0153  -2.9790   0.0000   0.0000   0.0000   1.3173
  -6.280   0.1822   0.01069   0.00458  -0.1786  0.3474  0.0154  -2.9743   0.0000   0.0000   0.0000   1.3113
  -6.270   0.1832   0.01069   0.00458  -0.1786  0.3473  0.0154  -2.9696   0.0000   0.0000   0.0000   1.3053
  -6.260   0.1841   0.01069   0.00458  -0.1786  0.3473  0.0154  -2.9650   0.0000   0.0000   0.0000   1.2995
  -6.250   0.1851   0.01069   0.00458  -0.1786  0.3473  0.0154  -2.9603   0.0000   0.0000   0.0000   1.2937
  -6.240   0.1861   0.01068   0.00458  -0.1785  0.3473  0.0154  -2.9556   0.0000   0.0000   0.0000   1.2879
  -6.230   0.1871   0.01068   0.00457  -0.1785  0.3473  0.0154  -2.9509   0.0000   0.0000   0.0000   1.2822
  -6.220   0.1880   0.01068   0.00457  -0.1785  0.3473  0.0154  -2.9462   0.0000   0.0000   0.0000   1.2766
  -6.210   0.1890   0.01068   0.00457  -0.1785  0.3473  0.0154  -2.9415   0.0000   0.0000   0.0000   1.2710
  -6.200   0.1900   0.01068   0.00457  -0.1784  0.3473  0.0154  -2.9369   0.0000   0.0000   0.0000   1.2655
  -6.190   0.1909   0.01068   0.00457  -0.1784  0.3472  0.0154  -2.9322   0.0000   0.0000   0.0000   1.2600
  -6.180   0.1919   0.01068   0.00457  -0.1784  0.3472  0.0154  -2.9275   0.0000   0.0000   0.0000   1.2546
  -6.170   0.1929   0.01068   0.00457  -0.1784  0.3472  0.0154  -2.9229   0.0000   0.0000   0.0000   1.2493
  -6.160   0.1939   0.01067   0.00457  -0.1783  0.3472  0.0154  -2.9182   0.0000   0.0000   0.0000   1.2440
  -6.150   0.1948   0.01067   0.00456  -0.1783  0.3472  0.0154  -2.9135   0.0000   0.0000   0.0000   1.2387
  -6.140   0.1958   0.01067   0.00456  -0.1783  0.3472  0.0154  -2.9088   0.0000   0.0000   0.0000   1.2335
  -6.130   0.1968   0.01067   0.00456  -0.1782  0.3472  0.0154  -2.9042   0.0000   0.0000   0.0000   1.2284
  -6.120   0.1978   0.01067   0.00456  -0.1782  0.3471  0.0154  -2.8995   0.0000   0.0000   0.0000   1.2233
  -6.110   0.1987   0.01067   0.00456  -0.1782  0.3471  0.0154  -2.8949   0.0000   0.0000   0.0000   1.2182
  -6.100   0.1997   0.01067   0.00456  -0.1782  0.3471  0.0154  -2.8902   0.0000   0.0000   0.0000   1.2132
  -6.090   0.2007   0.01066   0.00456  -0.1781  0.3471  0.0155  -2.8855   0.0000   0.0000   0.0000   1.2082
  -6.080   0.2017   0.01066   0.00456  -0.1781  0.3471  0.0155  -2.8809   0.0000   0.0000   0.0000   1.2033
  -6.070   0.2027   0.01066   0.00455  -0.1781  0.3471  0.0155  -2.8762   0.0000   0.0000   0.0000   1.1984
  -6.060   0.2036   0.01066   0.00455  -0.1781  0.3471  0.0155  -2.8716   0.0000   0.0000   0.0000   1.1936
  -6.050   0.2046   0.01066   0.00455  -0.1780  0.3471  0.0155  -2.8669   0.0000   0.0000   0.0000   1.1888
  -6.040   0.2056   0.01066   0.00455  -0.1780  0.3470  0.0155  -2.8623   0.0000   0.0000   0.0000   1.1841
  -6.030   0.2066   0.01066   0.00455  -0.1780  0.3470  0.0155  -2.8576   0.0000   0.0000   0.0000   1.1794
  -6.020   0.2076   0.01066   0.00455  -0.1780  0.3470  0.0155  -2.8530   0.0000   0.0000   0.0000   1.1747
  -6.010   0.2085   0.01065   0.00455  -0.1779  0.3470  0.0155  -2.8483   0.0000   0.0000   0.0000   1.1701
  -6.000   0.2095   0.01065   0.00455  -0.1779  0.3470  0.0155  -2.8437   0.0000   0.0000   0.0000   1.1656
  -5.990   0.2105   0.01065   0.00454  -0.1779  0.3470  0.0155  -2.8390   0.0000   0.0000   0.0000   1.1610
  -5.980   0.2115   0.01065   0.00454  -0.1779  0.3469  0.0155  -2.8344   0.0000   0.0000   0.0000   1.1566
  -5.970   0.2125   0.01065   0.00454  -0.1778  0.3469  0.0155  -2.8298   0.0000   0.0000   0.0000   1.1521
  -5.960   0.2134   0.01065   0.00454  -0.1778  0.3469  0.0155  -2.8251   0.0000   0.0000   0.0000   1.1477
  -5.950   0.2144   0.01065   0.00454  -0.1778  0.3469  0.0156  -2.8205   0.0000   0.0000   0.0000   1.1434
  -5.940   0.2154   0.01065   0.00454  -0.1778  0.3469  0.0156  -2.8159   0.0000   0.0000   0.0000   1.1391
  -5.930   0.2164   0.01064   0.00454  -0.1777  0.3468  0.0156  -2.8113   0.0000   0.0000   0.0000   1.1348
  -5.920   0.2174   0.01064   0.00454  -0.1777  0.3468  0.0156  -2.8066   0.0000   0.0000   0.0000   1.1305
  -5.910   0.2183   0.01064   0.00453  -0.1777  0.3468  0.0156  -2.8020   0.0000   0.0000   0.0000   1.1263
  -5.900   0.2193   0.01064   0.00453  -0.1777  0.3468  0.0156  -2.7974   0.0000   0.0000   0.0000   1.1222
  -5.890   0.2203   0.01064   0.00453  -0.1776  0.3468  0.0156  -2.7928   0.0000   0.0000   0.0000   1.1181
  -5.880   0.2213   0.01064   0.00453  -0.1776  0.3467  0.0156  -2.7882   0.0000   0.0000   0.0000   1.1140
  -5.870   0.2223   0.01064   0.00453  -0.1776  0.3467  0.0157  -2.7836   0.0000   0.0000   0.0000   1.1099
  -5.860   0.2232   0.01064   0.00453  -0.1776  0.3467  0.0157  -2.7790   0.0000   0.0000   0.0000   1.1059
  -5.850   0.2242   0.01064   0.00453  -0.1775  0.3467  0.0157  -2.7744   0.0000   0.0000   0.0000   1.1019
  -5.840   0.2252   0.01063   0.00453  -0.1775  0.3466  0.0157  -2.7697   0.0000   0.0000   0.0000   1.0979
  -5.830   0.2262   0.01063   0.00453  -0.1775  0.3466  0.0157  -2.7651   0.0000   0.0000   0.0000   1.0940
  -5.820   0.2272   0.01063   0.00452  -0.1775  0.3466  0.0157  -2.7605   0.0000   0.0000   0.0000   1.0901
  -5.810   0.2282   0.01063   0.00452  -0.1774  0.3466  0.0157  -2.7559   0.0000   0.0000   0.0000   1.0862
  -5.800   0.2291   0.01063   0.00452  -0.1774  0.3466  0.0157  -2.7513   0.0000   0.0000   0.0000   1.0824
  -5.790   0.2301   0.01063   0.00452  -0.1774  0.3466  0.0158  -2.7467   0.0000   0.0000   0.0000   1.0786
  -5.780   0.2311   0.01063   0.00452  -0.1774  0.3465  0.0158  -2.7421   0.0000   0.0000   0.0000   1.0748
  -5.770   0.2321   0.01062   0.00452  -0.1774  0.3465  0.0158  -2.7375   0.0000   0.0000   0.0000   1.0711
  -5.760   0.2331   0.01062   0.00452  -0.1773  0.3465  0.0158  -2.7329   0.0000   0.0000   0.0000   1.0674
  -5.750   0.2341   0.01062   0.00452  -0.1773  0.3465  0.0158  -2.7283   0.0000   0.0000   0.0000   1.0637
  -5.740   0.2351   0.01062   0.00451  -0.1773  0.3465  0.0158  -2.7236   0.0000   0.0000   0.0000   1.0600
  -5.730   0.2361   0.01062   0.00451  -0.1773  0.3465  0.0158  -2.7190   0.0000   0.0000   0.0000   1.0564
  -5.720   0.2371   0.01062   0.00451  -0.1772  0.3465  0.0158  -2.7144   0.0000   0.0000   0.0000   1.0528
  -5.710   0.2381   0.01062   0.00451  -0.1772  0.3465  0.0158  -2.7098   0.0000   0.0000   0.0000   1.0492
  -5.700   0.2391   0.01062   0.00451  -0.1772  0.3464  0.0159  -2.7052   0.0000   0.0000   0.0000   1.0457
  -5.690   0.2401   0.01061   0.00451  -0.1772  0.3464  0.0159  -2.7006   0.0000   0.0000   0.0000   1.0422
  -5.680   0.2411   0.01061   0.00451  -0.1772  0.3464  0.0159  -2.6961   0.0000   0.0000   0.0000   1.0387
  -5.670   0.2421   0.01061   0.00451  -0.1771  0.3464  0.0159  -2.6915   0.0000   0.0000   0.0000   1.0352
  -5.660   0.2431   0.01061   0.00450  -0.1771  0.3464  0.0159  -2.6869   0.0000   0.0000   0.0000   1.0318
  -5.650   0.2440   0.01061   0.00450  -0.1771  0.3464  0.0159  -2.6823   0.0000   0.0000   0.0000   1.0284
  -5.640   0.2450   0.01061   0.00450  -0.1771  0.3464  0.0159  -2.6777   0.0000   0.0000   0.0000   1.0250
  -5.630   0.2460   0.01061   0.00450  -0.1770  0.3464  0.0159  -2.6731   0.0000   0.0000   0.0000   1.0217
  -5.620   0.2470   0.01060   0.00450  -0.1770  0.3463  0.0160  -2.6685   0.0000   0.0000   0.0000   1.0184
  -5.610   0.2480   0.01060   0.00450  -0.1770  0.3463  0.0160  -2.6639   0.0000   0.0000   0.0000   1.0151
  -5.600   0.2490   0.01060   0.00450  -0.1770  0.3463  0.0160  -2.6594   0.0000   0.0000   0.0000   1.0118
  -5.590   0.2500   0.01060   0.00450  -0.1770  0.3463  0.0160  -2.6548   0.0000   0.0000   0.0000   1.0086
  -5.580   0.2510   0.01060   0.00450  -0.1769  0.3463  0.0160  -2.6502   0.0000   0.0000   0.0000   1.0053
  -5.570   0.2520   0.01060   0.00449  -0.1769  0.3463  0.0160  -2.6456   0.0000   0.0000   0.0000   1.0022
  -5.560   0.2530   0.01060   0.00449  -0.1769  0.3463  0.0160  -2.6411   0.0000   0.0000   0.0000   0.9990
  -5.550   0.2540   0.01060   0.00449  -0.1769  0.3463  0.0160  -2.6365   0.0000   0.0000   0.0000   0.9958
  -5.540   0.2550   0.01060   0.00449  -0.1768  0.3463  0.0160  -2.6319   0.0000   0.0000   0.0000   0.9927
  -5.530   0.2560   0.01059   0.00449  -0.1768  0.3462  0.0160  -2.6274   0.0000   0.0000   0.0000   0.9896
  -5.520   0.2570   0.01059   0.00449  -0.1768  0.3462  0.0161  -2.6228   0.0000   0.0000   0.0000   0.9866
  -5.510   0.2580   0.01059   0.00449  -0.1768  0.3462  0.0161  -2.6183   0.0000   0.0000   0.0000   0.9835
  -5.500   0.2590   0.01059   0.00449  -0.1768  0.3462  0.0161  -2.6137   0.0000   0.0000   0.0000   0.9805
  -5.490   0.2600   0.01059   0.00449  -0.1767  0.3462  0.0161  -2.6092   0.0000   0.0000   0.0000   0.9775
  -5.480   0.2610   0.01059   0.00449  -0.1767  0.3462  0.0161  -2.6046   0.0000   0.0000   0.0000   0.9745
  -5.470   0.2620   0.01059   0.00448  -0.1767  0.3462  0.0161  -2.6001   0.0000   0.0000   0.0000   0.9715
  -5.460   0.2630   0.01059   0.00448  -0.1767  0.3462  0.0161  -2.5955   0.0000   0.0000   0.0000   0.9686
  -5.450   0.2640   0.01058   0.00448  -0.1766  0.3461  0.0161  -2.5910   0.0000   0.0000   0.0000   0.9657
  -5.440   0.2650   0.01058   0.00448  -0.1766  0.3461  0.0161  -2.5864   0.0000   0.0000   0.0000   0.9628
  -5.430   0.2660   0.01058   0.00448  -0.1766  0.3461  0.0161  -2.5819   0.0000   0.0000   0.0000   0.9599
  -5.420   0.2670   0.01058   0.00448  -0.1766  0.3461  0.0161  -2.5774   0.0000   0.0000   0.0000   0.9571
  -5.410   0.2680   0.01058   0.00448  -0.1766  0.3461  0.0162  -2.5728   0.0000   0.0000   0.0000   0.9543
  -5.400   0.2690   0.01058   0.00448  -0.1765  0.3461  0.0162  -2.5683   0.0000   0.0000   0.0000   0.9515
  -5.390   0.2700   0.01058   0.00448  -0.1765  0.3461  0.0162  -2.5638   0.0000   0.0000   0.0000   0.9487
  -5.380   0.2710   0.01058   0.00448  -0.1765  0.3461  0.0162  -2.5592   0.0000   0.0000   0.0000   0.9459
  -5.370   0.2720   0.01058   0.00447  -0.1765  0.3460  0.0162  -2.5547   0.0000   0.0000   0.0000   0.9432
  -5.360   0.2730   0.01057   0.00447  -0.1765  0.3460  0.0162  -2.5502   0.0000   0.0000   0.0000   0.9404
  -5.350   0.2740   0.01057   0.00447  -0.1764  0.3460  0.0162  -2.5457   0.0000   0.0000   0.0000   0.9377
  -5.340   0.2750   0.01057   0.00447  -0.1764  0.3460  0.0162  -2.5412   0.0000   0.0000   0.0000   0.9350
  -5.330   0.2760   0.01057   0.00447  -0.1764  0.3460  0.0162  -2.5366   0.0000   0.0000   0.0000   0.9324
  -5.320   0.2770   0.01057   0.00447  -0.1764  0.3460  0.0162  -2.5321   0.0000   0.0000   0.0000   0.9297
  -5.310   0.2780   0.01057   0.00447  -0.1764  0.3460  0.0162  -2.5276   0.0000   0.0000   0.0000   0.9271
  -5.300   0.2790   0.01057   0.00447  -0.1763  0.3460  0.0162  -2.5231   0.0000   0.0000   0.0000   0.9245
  -5.290   0.2800   0.01057   0.00447  -0.1763  0.3459  0.0162  -2.5186   0.0000   0.0000   0.0000   0.9219
  -5.280   0.2810   0.01057   0.00447  -0.1763  0.3459  0.0162  -2.5141   0.0000   0.0000   0.0000   0.9193
  -5.270   0.2820   0.01057   0.00447  -0.1763  0.3459  0.0162  -2.5096   0.0000   0.0000   0.0000   0.9168
  -5.260   0.2830   0.01056   0.00446  -0.1762  0.3459  0.0162  -2.5052   0.0000   0.0000   0.0000   0.9142
  -5.250   0.2840   0.01056   0.00446  -0.1762  0.3459  0.0162  -2.5007   0.0000   0.0000   0.0000   0.9117
  -5.240   0.2850   0.01056   0.00446  -0.1762  0.3459  0.0163  -2.4962   0.0000   0.0000   0.0000   0.9092
  -5.230   0.2860   0.01056   0.00446  -0.1762  0.3459  0.0163  -2.4917   0.0000   0.0000   0.0000   0.9068
  -5.220   0.2870   0.01056   0.00446  -0.1762  0.3459  0.0163  -2.4874   0.0000   0.0000   0.0000   0.9043
  -5.210   0.2880   0.01056   0.00446  -0.1761  0.3458  0.0163  -2.4831   0.0000   0.0000   0.0000   0.9019
  -5.200   0.2889   0.01056   0.00446  -0.1761  0.3458  0.0163  -2.4788   0.0000   0.0000   0.0000   0.8995
  -5.190   0.2899   0.01056   0.00446  -0.1761  0.3458  0.0163  -2.4746   0.0000   0.0000   0.0000   0.8971
  -5.180   0.2909   0.01056   0.00446  -0.1761  0.3458  0.0163  -2.4703   0.0000   0.0000   0.0000   0.8947
  -5.170   0.2919   0.01056   0.00446  -0.1760  0.3458  0.0163  -2.4660   0.0000   0.0000   0.0000   0.8924
  -5.160   0.2929   0.01056   0.00446  -0.1760  0.3458  0.0163  -2.4618   0.0000   0.0000   0.0000   0.8901
  -5.150   0.2938   0.01056   0.00446  -0.1760  0.3458  0.0163  -2.4576   0.0000   0.0000   0.0000   0.8877
  -5.140   0.2948   0.01056   0.00446  -0.1760  0.3458  0.0163  -2.4533   0.0000   0.0000   0.0000   0.8854
  -5.130   0.2958   0.01055   0.00446  -0.1759  0.3457  0.0163  -2.4491   0.0000   0.0000   0.0000   0.8832
  -5.120   0.2968   0.01055   0.00446  -0.1759  0.3457  0.0163  -2.4449   0.0000   0.0000   0.0000   0.8809
  -5.110   0.2977   0.01055   0.00446  -0.1759  0.3457  0.0163  -2.4406   0.0000   0.0000   0.0000   0.8787
  -5.100   0.2987   0.01055   0.00446  -0.1759  0.3457  0.0163  -2.4364   0.0000   0.0000   0.0000   0.8764
  -5.090   0.2997   0.01055   0.00445  -0.1758  0.3457  0.0163  -2.4322   0.0000   0.0000   0.0000   0.8742
  -5.080   0.3006   0.01055   0.00445  -0.1758  0.3457  0.0163  -2.4280   0.0000   0.0000   0.0000   0.8720
  -5.070   0.3016   0.01055   0.00445  -0.1758  0.3457  0.0163  -2.4238   0.0000   0.0000   0.0000   0.8698
  -5.060   0.3026   0.01055   0.00445  -0.1757  0.3457  0.0163  -2.4196   0.0000   0.0000   0.0000   0.8677
  -5.050   0.3035   0.01055   0.00445  -0.1757  0.3457  0.0163  -2.4154   0.0000   0.0000   0.0000   0.8655
  -5.040   0.3045   0.01055   0.00445  -0.1757  0.3456  0.0163  -2.4112   0.0000   0.0000   0.0000   0.8634
  -5.030   0.3055   0.01055   0.00445  -0.1757  0.3456  0.0164  -2.4070   0.0000   0.0000   0.0000   0.8613
  -5.020   0.3064   0.01055   0.00445  -0.1756  0.3456  0.0164  -2.4028   0.0000   0.0000   0.0000   0.8592
  -5.010   0.3074   0.01055   0.00445  -0.1756  0.3456  0.0164  -2.3987   0.0000   0.0000   0.0000   0.8571
  -5.000   0.3083   0.01055   0.00445  -0.1756  0.3456  0.0164  -2.3945   0.0000   0.0000   0.0000   0.8550
  -4.990   0.3093   0.01055   0.00445  -0.1755  0.3456  0.0164  -2.3903   0.0000   0.0000   0.0000   0.8529
  -4.980   0.3103   0.01055   0.00445  -0.1755  0.3455  0.0164  -2.3861   0.0000   0.0000   0.0000   0.8509
  -4.970   0.3112   0.01055   0.00445  -0.1755  0.3455  0.0164  -2.3820   0.0000   0.0000   0.0000   0.8488
  -4.960   0.3122   0.01055   0.00445  -0.1755  0.3455  0.0164  -2.3778   0.0000   0.0000   0.0000   0.8468
  -4.950   0.3131   0.01055   0.00445  -0.1754  0.3455  0.0164  -2.3737   0.0000   0.0000   0.0000   0.8448
  -4.940   0.3141   0.01055   0.00445  -0.1754  0.3455  0.0164  -2.3695   0.0000   0.0000   0.0000   0.8428
  -4.930   0.3151   0.01055   0.00445  -0.1754  0.3455  0.0164  -2.3653   0.0000   0.0000   0.0000   0.8408
  -4.920   0.3160   0.01055   0.00445  -0.1753  0.3454  0.0164  -2.3612   0.0000   0.0000   0.0000   0.8388
  -4.910   0.3170   0.01054   0.00445  -0.1753  0.3454  0.0164  -2.3570   0.0000   0.0000   0.0000   0.8369
  -4.900   0.3179   0.01054   0.00445  -0.1753  0.3454  0.0164  -2.3529   0.0000   0.0000   0.0000   0.8349
  -4.890   0.3189   0.01054   0.00445  -0.1753  0.3454  0.0164  -2.3487   0.0000   0.0000   0.0000   0.8330
  -4.880   0.3198   0.01054   0.00445  -0.1752  0.3454  0.0164  -2.3446   0.0000   0.0000   0.0000   0.8310
  -4.870   0.3208   0.01054   0.00445  -0.1752  0.3454  0.0164  -2.3405   0.0000   0.0000   0.0000   0.8291
  -4.860   0.3218   0.01054   0.00445  -0.1752  0.3453  0.0164  -2.3363   0.0000   0.0000   0.0000   0.8272
  -4.850   0.3227   0.01054   0.00445  -0.1751  0.3453  0.0164  -2.3322   0.0000   0.0000   0.0000   0.8253
  -4.840   0.3237   0.01054   0.00445  -0.1751  0.3453  0.0164  -2.3280   0.0000   0.0000   0.0000   0.8234
  -4.830   0.3246   0.01054   0.00445  -0.1751  0.3453  0.0164  -2.3239   0.0000   0.0000   0.0000   0.8216
  -4.820   0.3256   0.01054   0.00445  -0.1751  0.3453  0.0165  -2.3198   0.0000   0.0000   0.0000   0.8197
  -4.810   0.3266   0.01054   0.00445  -0.1750  0.3452  0.0165  -2.3156   0.0000   0.0000   0.0000   0.8178
  -4.800   0.3275   0.01054   0.00445  -0.1750  0.3452  0.0165  -2.3115   0.0000   0.0000   0.0000   0.8160
  -4.790   0.3285   0.01054   0.00445  -0.1750  0.3452  0.0165  -2.3074   0.0000   0.0000   0.0000   0.8142
  -4.780   0.3295   0.01054   0.00445  -0.1750  0.3452  0.0165  -2.3032   0.0000   0.0000   0.0000   0.8123
  -4.770   0.3304   0.01054   0.00445  -0.1749  0.3452  0.0165  -2.2991   0.0000   0.0000   0.0000   0.8105
  -4.760   0.3314   0.01054   0.00445  -0.1749  0.3451  0.0165  -2.2950   0.0000   0.0000   0.0000   0.8087
  -4.750   0.3323   0.01054   0.00445  -0.1749  0.3451  0.0165  -2.2908   0.0000   0.0000   0.0000   0.8069
  -4.740   0.3333   0.01054   0.00445  -0.1748  0.3451  0.0165  -2.2867   0.0000   0.0000   0.0000   0.8051
  -4.730   0.3343   0.01054   0.00445  -0.1748  0.3451  0.0165  -2.2826   0.0000   0.0000   0.0000   0.8034
  -4.720   0.3352   0.01054   0.00445  -0.1748  0.3451  0.0165  -2.2785   0.0000   0.0000   0.0000   0.8016
  -4.710   0.3362   0.01054   0.00445  -0.1748  0.3450  0.0165  -2.2744   0.0000   0.0000   0.0000   0.7998
  -4.700   0.3372   0.01054   0.00445  -0.1747  0.3450  0.0165  -2.2702   0.0000   0.0000   0.0000   0.7981
  -4.690   0.3382   0.01054   0.00444  -0.1747  0.3450  0.0165  -2.2661   0.0000   0.0000   0.0000   0.7964
  -4.680   0.3391   0.01054   0.00444  -0.1747  0.3450  0.0165  -2.2620   0.0000   0.0000   0.0000   0.7946
  -4.670   0.3401   0.01054   0.00444  -0.1747  0.3449  0.0165  -2.2579   0.0000   0.0000   0.0000   0.7929
  -4.660   0.3411   0.01054   0.00444  -0.1746  0.3449  0.0165  -2.2538   0.0000   0.0000   0.0000   0.7912
  -4.650   0.3420   0.01054   0.00444  -0.1746  0.3449  0.0165  -2.2497   0.0000   0.0000   0.0000   0.7895
[...]
  -1.840   0.6103   0.01076   0.00472  -0.1670  0.3401  0.0178  -1.9753   0.0000   0.0000   0.0000   0.5253
  -1.830   0.6113   0.01076   0.00472  -0.1669  0.3401  0.0178  -1.9763   0.0000   0.0000   0.0000   0.5248
  -1.820   0.6122   0.01076   0.00472  -0.1669  0.3401  0.0178  -1.9773   0.0000   0.0000   0.0000   0.5243
  -1.810   0.6132   0.01076   0.00472  -0.1669  0.3401  0.0178  -1.9783   0.0000   0.0000   0.0000   0.5237
  -1.800   0.6141   0.01076   0.00473  -0.1669  0.3401  0.0178  -1.9793   0.0000   0.0000   0.0000   0.5232
  -1.790   0.6151   0.01077   0.00473  -0.1668  0.3401  0.0178  -1.9803   0.0000   0.0000   0.0000   0.5227
  -1.780   0.6160   0.01077   0.00473  -0.1668  0.3401  0.0179  -1.9813   0.0000   0.0000   0.0000   0.5222
  -1.770   0.6169   0.01077   0.00473  -0.1668  0.3401  0.0179  -1.9823   0.0000   0.0000   0.0000   0.5217
  -1.760   0.6179   0.01077   0.00473  -0.1667  0.3401  0.0179  -1.9833   0.0000   0.0000   0.0000   0.5212
  -1.750   0.6188   0.01077   0.00474  -0.1667  0.3401  0.0179  -1.9843   0.0000   0.0000   0.0000   0.5207
  -1.740   0.6197   0.01078   0.00474  -0.1667  0.3400  0.0179  -1.9853   0.0000   0.0000   0.0000   0.5202
  -1.730   0.6206   0.01078   0.00474  -0.1666  0.3400  0.0179  -1.9862   0.0000   0.0000   0.0000   0.5197
  -1.720   0.6216   0.01078   0.00474  -0.1666  0.3400  0.0179  -1.9872   0.0000   0.0000   0.0000   0.5192
  -1.710   0.6225   0.01078   0.00475  -0.1666  0.3400  0.0179  -1.9882   0.0000   0.0000   0.0000   0.5187
  -1.700   0.6234   0.01078   0.00475  -0.1665  0.3400  0.0180  -1.9892   0.0000   0.0000   0.0000   0.5182
  -1.690   0.6243   0.01079   0.00475  -0.1665  0.3400  0.0180  -1.9901   0.0000   0.0000   0.0000   0.5177
  -1.680   0.6252   0.01079   0.00476  -0.1665  0.3400  0.0180  -1.9911   0.0000   0.0000   0.0000   0.5172
  -1.670   0.6261   0.01079   0.00476  -0.1664  0.3400  0.0180  -1.9921   0.0000   0.0000   0.0000   0.5167
  -1.660   0.6270   0.01079   0.00476  -0.1664  0.3400  0.0180  -1.9931   0.0000   0.0000   0.0000   0.5162
  -1.650   0.6279   0.01080   0.00476  -0.1664  0.3400  0.0181  -1.9940   0.0000   0.0000   0.0000   0.5157
  -1.640   0.6288   0.01080   0.00477  -0.1663  0.3400  0.0181  -1.9950   0.0000   0.0000   0.0000   0.5152
  -1.630   0.6297   0.01080   0.00477  -0.1663  0.3400  0.0181  -1.9959   0.0000   0.0000   0.0000   0.5147
  -1.620   0.6305   0.01080   0.00477  -0.1663  0.3399  0.0181  -1.9969   0.0000   0.0000   0.0000   0.5142
  -1.610   0.6314   0.01081   0.00478  -0.1662  0.3399  0.0182  -1.9979   0.0000   0.0000   0.0000   0.5138
  -1.600   0.6323   0.01081   0.00478  -0.1662  0.3399  0.0182  -1.9988   0.0000   0.0000   0.0000   0.5133
  -1.590   0.6332   0.01081   0.00478  -0.1662  0.3399  0.0182  -1.9998   0.0000   0.0000   0.0000   0.5128
  -1.580   0.6341   0.01081   0.00478  -0.1661  0.3399  0.0182  -2.0007   0.0000   0.0000   0.0000   0.5123
  -1.570   0.6350   0.01082   0.00479  -0.1661  0.3399  0.0183  -2.0017   0.0000   0.0000   0.0000   0.5118
  -1.560   0.6359   0.01082   0.00479  -0.1661  0.3399  0.0183  -2.0026   0.0000   0.0000   0.0000   0.5114
  -1.550   0.6368   0.01082   0.00479  -0.1660  0.3399  0.0183  -2.0036   0.0000   0.0000   0.0000   0.5109
  -1.540   0.6377   0.01082   0.00480  -0.1660  0.3399  0.0184  -2.0046   0.0000   0.0000   0.0000   0.5104
  -1.530   0.6385   0.01083   0.00480  -0.1659  0.3399  0.0184  -2.0055   0.0000   0.0000   0.0000   0.5099
  -1.520   0.6394   0.01083   0.00480  -0.1659  0.3399  0.0184  -2.0065   0.0000   0.0000   0.0000   0.5095
  -1.510   0.6403   0.01083   0.00480  -0.1659  0.3399  0.0185  -2.0074   0.0000   0.0000   0.0000   0.5090
  -1.500   0.6412   0.01083   0.00481  -0.1658  0.3399  0.0185  -2.0084   0.0000   0.0000   0.0000   0.5085
  -1.490   0.6421   0.01084   0.00481  -0.1658  0.3398  0.0185  -2.0094   0.0000   0.0000   0.0000   0.5081
  -1.480   0.6430   0.01084   0.00481  -0.1658  0.3398  0.0185  -2.0103   0.0000   0.0000   0.0000   0.5076
  -1.470   0.6439   0.01084   0.00482  -0.1657  0.3398  0.0186  -2.0113   0.0000   0.0000   0.0000   0.5071
  -1.460   0.6448   0.01084   0.00482  -0.1657  0.3398  0.0186  -2.0122   0.0000   0.0000   0.0000   0.5067
  -1.450   0.6457   0.01084   0.00482  -0.1657  0.3398  0.0186  -2.0132   0.0000   0.0000   0.0000   0.5062
  -1.440   0.6466   0.01085   0.00482  -0.1656  0.3398  0.0187  -2.0142   0.0000   0.0000   0.0000   0.5058
  -1.430   0.6475   0.01085   0.00483  -0.1656  0.3398  0.0187  -2.0151   0.0000   0.0000   0.0000   0.5053
  -1.420   0.6484   0.01085   0.00483  -0.1656  0.3398  0.0187  -2.0161   0.0000   0.0000   0.0000   0.5048
  -1.410   0.6493   0.01085   0.00483  -0.1655  0.3398  0.0188  -2.0171   0.0000   0.0000   0.0000   0.5044
  -1.400   0.6502   0.01086   0.00484  -0.1655  0.3398  0.0188  -2.0181   0.0000   0.0000   0.0000   0.5039
  -1.390   0.6511   0.01086   0.00484  -0.1655  0.3398  0.0188  -2.0190   0.0000   0.0000   0.0000   0.5035
  -1.380   0.6520   0.01086   0.00484  -0.1654  0.3398  0.0189  -2.0200   0.0000   0.0000   0.0000   0.5030
  -1.370   0.6529   0.01086   0.00484  -0.1654  0.3397  0.0189  -2.0210   0.0000   0.0000   0.0000   0.5026
  -1.360   0.6538   0.01087   0.00485  -0.1654  0.3397  0.0189  -2.0220   0.0000   0.0000   0.0000   0.5021
  -1.350   0.6547   0.01087   0.00485  -0.1653  0.3397  0.0190  -2.0229   0.0000   0.0000   0.0000   0.5016
  -1.340   0.6557   0.01087   0.00485  -0.1653  0.3397  0.0190  -2.0239   0.0000   0.0000   0.0000   0.5012
  -1.330   0.6566   0.01087   0.00486  -0.1653  0.3397  0.0190  -2.0249   0.0000   0.0000   0.0000   0.5007
  -1.320   0.6575   0.01088   0.00486  -0.1652  0.3397  0.0191  -2.0259   0.0000   0.0000   0.0000   0.5003
  -1.310   0.6584   0.01088   0.00486  -0.1652  0.3397  0.0191  -2.0268   0.0000   0.0000   0.0000   0.4999
  -1.300   0.6593   0.01088   0.00486  -0.1652  0.3397  0.0191  -2.0278   0.0000   0.0000   0.0000   0.4994
  -1.290   0.6602   0.01088   0.00487  -0.1651  0.3397  0.0191  -2.0288   0.0000   0.0000   0.0000   0.4990
  -1.280   0.6612   0.01089   0.00487  -0.1651  0.3397  0.0192  -2.0298   0.0000   0.0000   0.0000   0.4985
  -1.270   0.6621   0.01089   0.00487  -0.1651  0.3397  0.0192  -2.0308   0.0000   0.0000   0.0000   0.4981
  -1.260   0.6630   0.01089   0.00488  -0.1651  0.3397  0.0192  -2.0318   0.0000   0.0000   0.0000   0.4976
  -1.250   0.6639   0.01089   0.00488  -0.1650  0.3396  0.0192  -2.0327   0.0000   0.0000   0.0000   0.4972
  -1.240   0.6649   0.01089   0.00488  -0.1650  0.3396  0.0192  -2.0337   0.0000   0.0000   0.0000   0.4968
  -1.230   0.6658   0.01090   0.00488  -0.1650  0.3396  0.0193  -2.0347   0.0000   0.0000   0.0000   0.4963
  -1.220   0.6667   0.01090   0.00489  -0.1649  0.3396  0.0193  -2.0357   0.0000   0.0000   0.0000   0.4959
  -1.210   0.6676   0.01090   0.00489  -0.1649  0.3396  0.0193  -2.0367   0.0000   0.0000   0.0000   0.4954
  -1.200   0.6686   0.01090   0.00489  -0.1649  0.3396  0.0193  -2.0377   0.0000   0.0000   0.0000   0.4950
  -1.190   0.6695   0.01091   0.00490  -0.1649  0.3396  0.0194  -2.0387   0.0000   0.0000   0.0000   0.4946
  -1.180   0.6704   0.01091   0.00490  -0.1648  0.3396  0.0194  -2.0397   0.0000   0.0000   0.0000   0.4941
  -1.170   0.6713   0.01091   0.00490  -0.1648  0.3396  0.0194  -2.0406   0.0000   0.0000   0.0000   0.4937
  -1.160   0.6723   0.01091   0.00490  -0.1648  0.3396  0.0194  -2.0416   0.0000   0.0000   0.0000   0.4933
  -1.150   0.6732   0.01092   0.00491  -0.1647  0.3396  0.0194  -2.0426   0.0000   0.0000   0.0000   0.4928
  -1.140   0.6741   0.01092   0.00491  -0.1647  0.3395  0.0195  -2.0436   0.0000   0.0000   0.0000   0.4924
  -1.130   0.6751   0.01092   0.00491  -0.1647  0.3395  0.0195  -2.0446   0.0000   0.0000   0.0000   0.4920
  -1.120   0.6760   0.01092   0.00492  -0.1647  0.3395  0.0195  -2.0456   0.0000   0.0000   0.0000   0.4916
  -1.110   0.6769   0.01093   0.00492  -0.1646  0.3395  0.0195  -2.0466   0.0000   0.0000   0.0000   0.4911
  -1.100   0.6779   0.01093   0.00492  -0.1646  0.3395  0.0195  -2.0476   0.0000   0.0000   0.0000   0.4907
  -1.090   0.6788   0.01093   0.00492  -0.1646  0.3395  0.0195  -2.0486   0.0000   0.0000   0.0000   0.4903
  -1.080   0.6797   0.01093   0.00493  -0.1645  0.3395  0.0196  -2.0496   0.0000   0.0000   0.0000   0.4899
  -1.070   0.6807   0.01094   0.00493  -0.1645  0.3395  0.0196  -2.0506   0.0000   0.0000   0.0000   0.4895
  -1.060   0.6816   0.01094   0.00493  -0.1645  0.3395  0.0196  -2.0516   0.0000   0.0000   0.0000   0.4890
  -1.050   0.6825   0.01094   0.00494  -0.1645  0.3395  0.0196  -2.0525   0.0000   0.0000   0.0000   0.4886
  -1.040   0.6835   0.01094   0.00494  -0.1644  0.3395  0.0196  -2.0535   0.0000   0.0000   0.0000   0.4882
  -1.030   0.6844   0.01095   0.00494  -0.1644  0.3394  0.0196  -2.0545   0.0000   0.0000   0.0000   0.4878
  -1.020   0.6854   0.01095   0.00494  -0.1644  0.3394  0.0196  -2.0555   0.0000   0.0000   0.0000   0.4874
  -1.010   0.6863   0.01095   0.00495  -0.1644  0.3394  0.0196  -2.0565   0.0000   0.0000   0.0000   0.4870
  -1.000   0.6872   0.01095   0.00495  -0.1643  0.3394  0.0196  -2.0575   0.0000   0.0000   0.0000   0.4865
  -0.990   0.6882   0.01096   0.00495  -0.1643  0.3394  0.0196  -2.0585   0.0000   0.0000   0.0000   0.4861
  -0.980   0.6891   0.01096   0.00496  -0.1643  0.3394  0.0197  -2.0595   0.0000   0.0000   0.0000   0.4857
  -0.970   0.6900   0.01096   0.00496  -0.1642  0.3394  0.0197  -2.0605   0.0000   0.0000   0.0000   0.4853
  -0.960   0.6910   0.01096   0.00496  -0.1642  0.3394  0.0197  -2.0615   0.0000   0.0000   0.0000   0.4849
  -0.950   0.6919   0.01097   0.00496  -0.1642  0.3394  0.0197  -2.0625   0.0000   0.0000   0.0000   0.4845
  -0.940   0.6929   0.01097   0.00497  -0.1642  0.3394  0.0197  -2.0635   0.0000   0.0000   0.0000   0.4841
  -0.930   0.6938   0.01097   0.00497  -0.1641  0.3394  0.0197  -2.0645   0.0000   0.0000   0.0000   0.4837
  -0.920   0.6947   0.01097   0.00497  -0.1641  0.3393  0.0197  -2.0655   0.0000   0.0000   0.0000   0.4833
  -0.910   0.6957   0.01098   0.00498  -0.1641  0.3393  0.0197  -2.0665   0.0000   0.0000   0.0000   0.4829
  -0.900   0.6966   0.01098   0.00498  -0.1641  0.3393  0.0197  -2.0675   0.0000   0.0000   0.0000   0.4825
  -0.890   0.6976   0.01098   0.00498  -0.1640  0.3393  0.0197  -2.0685   0.0000   0.0000   0.0000   0.4821
  -0.880   0.6985   0.01099   0.00499  -0.1640  0.3393  0.0197  -2.0695   0.0000   0.0000   0.0000   0.4817
  -0.870   0.6994   0.01099   0.00499  -0.1640  0.3393  0.0197  -2.0705   0.0000   0.0000   0.0000   0.4813
  -0.860   0.7004   0.01099   0.00499  -0.1640  0.3393  0.0197  -2.0715   0.0000   0.0000   0.0000   0.4809
  -0.850   0.7013   0.01099   0.00499  -0.1639  0.3393  0.0197  -2.0725   0.0000   0.0000   0.0000   0.4805
  -0.840   0.7023   0.01100   0.00500  -0.1639  0.3393  0.0198  -2.0735   0.0000   0.0000   0.0000   0.4801
  -0.830   0.7032   0.01100   0.00500  -0.1639  0.3393  0.0198  -2.0745   0.0000   0.0000   0.0000   0.4797
  -0.820   0.7041   0.01100   0.00500  -0.1639  0.3392  0.0198  -2.0755   0.0000   0.0000   0.0000   0.4793
  -0.810   0.7051   0.01100   0.00501  -0.1638  0.3392  0.0198  -2.0765   0.0000   0.0000   0.0000   0.4789
  -0.800   0.7060   0.01101   0.00501  -0.1638  0.3392  0.0198  -2.0775   0.0000   0.0000   0.0000   0.4785
  -0.790   0.7070   0.01101   0.00501  -0.1638  0.3392  0.0198  -2.0785   0.0000   0.0000   0.0000   0.4781
  -0.780   0.7079   0.01101   0.00502  -0.1637  0.3392  0.0198  -2.0795   0.0000   0.0000   0.0000   0.4777
  -0.770   0.7088   0.01101   0.00502  -0.1637  0.3392  0.0198  -2.0805   0.0000   0.0000   0.0000   0.4774
  -0.760   0.7098   0.01102   0.00502  -0.1637  0.3392  0.0198  -2.0815   0.0000   0.0000   0.0000   0.4770
  -0.750   0.7107   0.01102   0.00502  -0.1637  0.3392  0.0198  -2.0825   0.0000   0.0000   0.0000   0.4766
  -0.740   0.7117   0.01102   0.00503  -0.1636  0.3392  0.0198  -2.0835   0.0000   0.0000   0.0000   0.4762
  -0.730   0.7126   0.01103   0.00503  -0.1636  0.3392  0.0198  -2.0845   0.0000   0.0000   0.0000   0.4758
  -0.720   0.7135   0.01103   0.00503  -0.1636  0.3391  0.0198  -2.0855   0.0000   0.0000   0.0000   0.4754
  -0.710   0.7145   0.01103   0.00504  -0.1636  0.3391  0.0198  -2.0864   0.0000   0.0000   0.0000   0.4750
  -0.700   0.7154   0.01103   0.00504  -0.1635  0.3391  0.0199  -2.0874   0.0000   0.0000   0.0000   0.4747
  -0.690   0.7163   0.01104   0.00504  -0.1635  0.3391  0.0199  -2.0884   0.0000   0.0000   0.0000   0.4743
  -0.680   0.7173   0.01104   0.00505  -0.1635  0.3391  0.0199  -2.0894   0.0000   0.0000   0.0000   0.4739
  -0.670   0.7182   0.01104   0.00505  -0.1635  0.3391  0.0199  -2.0904   0.0000   0.0000   0.0000   0.4735
  -0.660   0.7192   0.01104   0.00505  -0.1634  0.3391  0.0199  -2.0914   0.0000   0.0000   0.0000   0.4731
  -0.650   0.7201   0.01105   0.00506  -0.1634  0.3391  0.0199  -2.0924   0.0000   0.0000   0.0000   0.4728
  -0.640   0.7210   0.01105   0.00506  -0.1634  0.3391  0.0199  -2.0934   0.0000   0.0000   0.0000   0.4724
  -0.630   0.7220   0.01105   0.00506  -0.1634  0.3391  0.0199  -2.0944   0.0000   0.0000   0.0000   0.4720
  -0.620   0.7229   0.01106   0.00507  -0.1633  0.3390  0.0199  -2.0954   0.0000   0.0000   0.0000   0.4717
  -0.610   0.7238   0.01106   0.00507  -0.1633  0.3390  0.0199  -2.0964   0.0000   0.0000   0.0000   0.4713
  -0.600   0.7247   0.01106   0.00507  -0.1633  0.3390  0.0199  -2.0974   0.0000   0.0000   0.0000   0.4709
  -0.590   0.7256   0.01107   0.00508  -0.1632  0.3390  0.0199  -2.0983   0.0000   0.0000   0.0000   0.4705
  -0.580   0.7265   0.01107   0.00508  -0.1632  0.3390  0.0199  -2.0993   0.0000   0.0000   0.0000   0.4702
  -0.570   0.7274   0.01107   0.00508  -0.1632  0.3390  0.0199  -2.1003   0.0000   0.0000   0.0000   0.4698
  -0.560   0.7283   0.01108   0.00509  -0.1631  0.3390  0.0200  -2.1012   0.0000   0.0000   0.0000   0.4694
  -0.550   0.7292   0.01108   0.00509  -0.1631  0.3390  0.0200  -2.1022   0.0000   0.0000   0.0000   0.4691
  -0.540   0.7301   0.01108   0.00510  -0.1631  0.3390  0.0200  -2.1031   0.0000   0.0000   0.0000   0.4687
  -0.530   0.7310   0.01109   0.00510  -0.1630  0.3390  0.0200  -2.1041   0.0000   0.0000   0.0000   0.4684
  -0.520   0.7319   0.01109   0.00510  -0.1630  0.3389  0.0200  -2.1050   0.0000   0.0000   0.0000   0.4680
  -0.510   0.7328   0.01109   0.00511  -0.1630  0.3389  0.0200  -2.1060   0.0000   0.0000   0.0000   0.4676
  -0.500   0.7336   0.01110   0.00511  -0.1629  0.3389  0.0200  -2.1069   0.0000   0.0000   0.0000   0.4673
  -0.490   0.7345   0.01110   0.00512  -0.1629  0.3389  0.0200  -2.1079   0.0000   0.0000   0.0000   0.4669
  -0.480   0.7354   0.01111   0.00512  -0.1629  0.3389  0.0200  -2.1088   0.0000   0.0000   0.0000   0.4666
  -0.470   0.7362   0.01111   0.00513  -0.1628  0.3389  0.0200  -2.1097   0.0000   0.0000   0.0000   0.4662
  -0.460   0.7371   0.01111   0.00513  -0.1628  0.3389  0.0200  -2.1107   0.0000   0.0000   0.0000   0.4659
  -0.450   0.7380   0.01112   0.00513  -0.1627  0.3389  0.0200  -2.1116   0.0000   0.0000   0.0000   0.4655
  -0.440   0.7388   0.01112   0.00514  -0.1627  0.3389  0.0200  -2.1125   0.0000   0.0000   0.0000   0.4652
  -0.430   0.7397   0.01113   0.00514  -0.1627  0.3388  0.0200  -2.1134   0.0000   0.0000   0.0000   0.4648
  -0.420   0.7405   0.01113   0.00515  -0.1626  0.3388  0.0200  -2.1144   0.0000   0.0000   0.0000   0.4645
  -0.410   0.7414   0.01113   0.00515  -0.1626  0.3388  0.0200  -2.1153   0.0000   0.0000   0.0000   0.4641
  -0.400   0.7422   0.01114   0.00516  -0.1625  0.3388  0.0201  -2.1162   0.0000   0.0000   0.0000   0.4638
  -0.390   0.7431   0.01114   0.00516  -0.1625  0.3388  0.0201  -2.1172   0.0000   0.0000   0.0000   0.4634
  -0.380   0.7440   0.01115   0.00517  -0.1625  0.3388  0.0201  -2.1181   0.0000   0.0000   0.0000   0.4631
  -0.370   0.7448   0.01115   0.00517  -0.1624  0.3388  0.0201  -2.1190   0.0000   0.0000   0.0000   0.4627
  -0.360   0.7457   0.01116   0.00518  -0.1624  0.3388  0.0201  -2.1199   0.0000   0.0000   0.0000   0.4624
  -0.350   0.7465   0.01116   0.00518  -0.1623  0.3388  0.0201  -2.1209   0.0000   0.0000   0.0000   0.4620
  -0.340   0.7474   0.01116   0.00518  -0.1623  0.3387  0.0201  -2.1218   0.0000   0.0000   0.0000   0.4617
  -0.330   0.7483   0.01117   0.00519  -0.1623  0.3387  0.0201  -2.1227   0.0000   0.0000   0.0000   0.4614
  -0.320   0.7491   0.01117   0.00519  -0.1622  0.3387  0.0201  -2.1237   0.0000   0.0000   0.0000   0.4610
  -0.310   0.7500   0.01118   0.00520  -0.1622  0.3387  0.0201  -2.1246   0.0000   0.0000   0.0000   0.4607
  -0.300   0.7509   0.01118   0.00520  -0.1622  0.3387  0.0201  -2.1255   0.0000   0.0000   0.0000   0.4603
  -0.290   0.7517   0.01118   0.00521  -0.1621  0.3387  0.0201  -2.1265   0.0000   0.0000   0.0000   0.4600
  -0.280   0.7526   0.01119   0.00521  -0.1621  0.3387  0.0201  -2.1274   0.0000   0.0000   0.0000   0.4597
  -0.270   0.7535   0.01119   0.00522  -0.1621  0.3387  0.0201  -2.1284   0.0000   0.0000   0.0000   0.4593
  -0.260   0.7544   0.01120   0.00522  -0.1620  0.3387  0.0201  -2.1293   0.0000   0.0000   0.0000   0.4590
  -0.250   0.7552   0.01120   0.00522  -0.1620  0.3386  0.0202  -2.1303   0.0000   0.0000   0.0000   0.4586
  -0.240   0.7561   0.01120   0.00523  -0.1619  0.3386  0.0202  -2.1312   0.0000   0.0000   0.0000   0.4583
  -0.230   0.7570   0.01121   0.00523  -0.1619  0.3386  0.0202  -2.1321   0.0000   0.0000   0.0000   0.4580
  -0.220   0.7579   0.01121   0.00524  -0.1619  0.3386  0.0202  -2.1331   0.0000   0.0000   0.0000   0.4576
  -0.210   0.7588   0.01122   0.00524  -0.1618  0.3386  0.0202  -2.1340   0.0000   0.0000   0.0000   0.4573
  -0.200   0.7597   0.01122   0.00525  -0.1618  0.3386  0.0202  -2.1350   0.0000   0.0000   0.0000   0.4570
  -0.190   0.7605   0.01122   0.00525  -0.1618  0.3386  0.0202  -2.1359   0.0000   0.0000   0.0000   0.4566
  -0.180   0.7614   0.01123   0.00525  -0.1617  0.3386  0.0202  -2.1369   0.0000   0.0000   0.0000   0.4563
  -0.170   0.7623   0.01123   0.00526  -0.1617  0.3386  0.0202  -2.1379   0.0000   0.0000   0.0000   0.4560
  -0.160   0.7632   0.01124   0.00526  -0.1617  0.3385  0.0202  -2.1388   0.0000   0.0000   0.0000   0.4556
  -0.150   0.7641   0.01124   0.00527  -0.1616  0.3385  0.0202  -2.1398   0.0000   0.0000   0.0000   0.4553
  -0.140   0.7650   0.01124   0.00527  -0.1616  0.3385  0.0202  -2.1407   0.0000   0.0000   0.0000   0.4550
  -0.130   0.7659   0.01125   0.00528  -0.1616  0.3385  0.0202  -2.1417   0.0000   0.0000   0.0000   0.4547
  -0.120   0.7668   0.01125   0.00528  -0.1615  0.3385  0.0202  -2.1426   0.0000   0.0000   0.0000   0.4543
  -0.110   0.7677   0.01125   0.00528  -0.1615  0.3385  0.0202  -2.1436   0.0000   0.0000   0.0000   0.4540
  -0.100   0.7686   0.01126   0.00529  -0.1615  0.3385  0.0202  -2.1446   0.0000   0.0000   0.0000   0.4537
  -0.090   0.7695   0.01126   0.00529  -0.1615  0.3385  0.0203  -2.1455   0.0000   0.0000   0.0000   0.4533
  -0.080   0.7704   0.01127   0.00530  -0.1614  0.3385  0.0203  -2.1465   0.0000   0.0000   0.0000   0.4530
  -0.070   0.7713   0.01127   0.00530  -0.1614  0.3384  0.0203  -2.1475   0.0000   0.0000   0.0000   0.4527
  -0.060   0.7722   0.01127   0.00531  -0.1614  0.3384  0.0203  -2.1484   0.0000   0.0000   0.0000   0.4524
  -0.050   0.7731   0.01128   0.00531  -0.1613  0.3384  0.0203  -2.1494   0.0000   0.0000   0.0000   0.4521
  -0.040   0.7740   0.01128   0.00531  -0.1613  0.3384  0.0203  -2.1503   0.0000   0.0000   0.0000   0.4517
  -0.030   0.7749   0.01129   0.00532  -0.1613  0.3384  0.0203  -2.1513   0.0000   0.0000   0.0000   0.4514
  -0.020   0.7758   0.01129   0.00532  -0.1612  0.3384  0.0203  -2.1523   0.0000   0.0000   0.0000   0.4511
  -0.010   0.7767   0.01129   0.00533  -0.1612  0.3384  0.0203  -2.1532   0.0000   0.0000   0.0000   0.4508
   0.000   0.7776   0.01130   0.00533  -0.1612  0.3384  0.0203  -2.1542   0.0000   0.0000   0.0000   0.4504


